version 2
run final-0-20201215-17:54:59-11983
attr configname final
attr datetime 20201215-17:54:59
attr experiment 20201215-17:54:59
attr inifile omnetpp_artery.ini
attr iterationvars ""
attr iterationvarsf ""
attr measurement ""
attr network rover.simulations.networks.World_Wlan
attr processid 11983
attr repetition 0
attr replication #0
attr resultdir results
attr runnumber 0
attr seedset 42
param *.traci.launcher.vadereScenarioPath "\"vadere/scenarios/simple_detour_100x177_miat1.25.scenario\""
param *.station[0].numApps 1
param *.station[0].app[0].typename "\"UdpDetourApp\""
param *.station[0].app[0].incidentTime 100s
param *.station[0].app[0].reason "\"E2002_closed\""
param *.station[0].app[0].closedTarget "\"2002\""
param *.station[0].app[0].alternativeRoute "\"2003,2001\""
param *.station[0].app[0].repeatTime 600s
param *.station[0].app[0].repeateInterval 1s
param *.station[0].app[0].localPort 3000
param *.station[0].app[0].startTime 0s
param *.station[0].app[0].stopTime 300s
param *.station[0].app[0].destAddresses "\"224.0.0.10\""
param *.station[0].app[0].destPort 3000
param *.station[0].app[0].receiveBroadcast true
param *.station[0].app[0].joinLocalMulticastGroups true
param *.station[0].app[0].multicastInterface "\"wlan0\""
param *.station[0].app[0].messageLength 3kB
param *.station[1].numApps 1
param *.station[1].app[0].typename "\"UdpSink\""
param *.station[1].app[0].localPort 5000
param *.node[*].numApps 2
param *.node[*].app[0].typename "\"UdpDetourAppVadere\""
param *.node[*].app[0].localPort 3000
param *.node[*].app[0].startTime 0s
param *.node[*].app[0].stopTime 300s
param *.node[*].app[0].destAddresses "\"224.0.0.10\""
param *.node[*].app[0].destPort 3000
param *.node[*].app[0].receiveBroadcast true
param *.node[*].app[0].joinLocalMulticastGroups true
param *.node[*].app[0].multicastInterface "\"wlanNic0\""
param *.node[*].app[0].notifyMobilityProvider true
param *.node[*].app[0].messageLength 3kB
param **wlan*[*].radio.transmitter.power 2.0mW
param *.node[*].app[1].typename "\"UdpBasicApp\""
param *.node[*].app[1].destAddresses "\"station[1]\""
param *.node[*].app[1].sendInterval "truncnormal(20ms, 1ms)"
param *.node[*].app[1].destPort 5000
param *.node[*].app[1].messageLength 1000B
param *.node[*].app[1].packetName "\"UDPBackground\""
param *.node[*].app[1].startTime 280s
param *.node[*].app[1].stopTime 300s
param *.physicalEnvironment.config "xmldoc(\"vadere/scenarios/simple_detour_100x177.env.xml\")"
param *.physicalEnvironment.spaceMinX -10m
param *.physicalEnvironment.spaceMinY -10m
param *.physicalEnvironment.spaceMinZ -10m
param *.physicalEnvironment.spaceMaxX 200m
param *.physicalEnvironment.spaceMaxY 150m
param *.physicalEnvironment.spaceMaxZ 100m
param *.numStationary 2
param *.station[0].mobility.initFromDisplayString false
param *.station[0].mobilityType "\"StationaryMobility\""
param *.station[0].mobility.initialX 30m
param *.station[0].mobility.initialY 93.5m
param *.station[1].mobility.initFromDisplayString false
param *.station[1].mobilityType "\"StationaryMobility\""
param *.station[1].mobility.initialX 85m
param *.station[1].mobility.initialY 45m
param **wlan*[*].radio.transmitter.power 2mW
param **wlan*[*].radio.receiver.sensitivity -85dBm
param **wlan*[*].radio.receiver.snirThreshold 6dB
param *.radioMedium.typename "\"Ieee80211DimensionalRadioMedium\""
param *.radioMedium.pathLoss.typename "\"LogNormalShadowing\""
param *.radioMedium.obstacleLoss.typename "\"IdealObstacleLoss\""
param **wlan*[*].radio.typename "\"Ieee80211DimensionalRadio\""
param **.errorModel.snirMode "\"mean\""
param **.receiver.snirThresholdMode "\"mean\""
param **.mobility.constraintAreaMinZ 0m
param **.mobility.constraintAreaMaxZ 0m
param **.coordConverterModule "\"coordConverter\""
param **.identiyRegistryModule "\"identiyRegistry\""
param *.node[*].useArtery false
param *.node[*].hasLte false
param *.node[*].hasWlan true
param *.node[*].numWlanNic 1
param *.node[*].aid.hasDensityMap false
param *.node[*].wlanNic[*].mgmt.typename "\"Ieee80211MgmtAdhoc\""
param *.node[*].wlanNic[*].agent.typename "\"\""
param *.node[*].wlanNic[*].forwarding true
param *.node[*].wlanNic[*].multicastForwarding true
param *.node[*].wlanNic[*].radio.antenna.mobilityModule "\"^.^.^.mobility\""
param *.node[*].radioDriver.dispatchInterfaceName "\"wlanNic0\""
param *.node[*].aid.hasDensityMap false
param *.node[*].ipv4.configurator.interfaces "\"wlanNic0\""
param *.node[*].configurator.interfaces "\"wlanNic0\""
param *.node[*].configurator.mcastGroups "\"224.0.0.10\""
param *.node[*].configurator.addressBase "\"20.0.5.0\""
param *.node[*].configurator.netmask "\"255.0.0.0\""

scalar World_Wlan.station[0].app[0] internalId 56
scalar World_Wlan.station[0].app[0] moduleCreationTime 0
attr unit s
scalar World_Wlan.node[0].app[0] internalId 170
scalar World_Wlan.node[0].app[0] moduleCreationTime 0
attr unit s
scalar World_Wlan.node[0].app[0] externalId 1
scalar World_Wlan.node[1].app[0] internalId 234
scalar World_Wlan.node[1].app[0] moduleCreationTime 0
attr unit s
scalar World_Wlan.node[1].app[0] externalId 2
scalar World_Wlan.node[2].app[0] internalId 298
scalar World_Wlan.node[2].app[0] moduleCreationTime 0
attr unit s
scalar World_Wlan.node[2].app[0] externalId 3
scalar World_Wlan.node[3].app[0] internalId 362
scalar World_Wlan.node[3].app[0] moduleCreationTime 0
attr unit s
scalar World_Wlan.node[3].app[0] externalId 4
scalar World_Wlan.node[4].app[0] internalId 426
scalar World_Wlan.node[4].app[0] moduleCreationTime 4.4
attr unit s
scalar World_Wlan.node[4].app[0] externalId 5
scalar World_Wlan.node[5].app[0] internalId 490
scalar World_Wlan.node[5].app[0] moduleCreationTime 17.6
attr unit s
scalar World_Wlan.node[5].app[0] externalId 6
scalar World_Wlan.node[6].app[0] internalId 554
scalar World_Wlan.node[6].app[0] moduleCreationTime 40
attr unit s
scalar World_Wlan.node[6].app[0] externalId 7
scalar World_Wlan.node[7].app[0] internalId 618
scalar World_Wlan.node[7].app[0] moduleCreationTime 43.2
attr unit s
scalar World_Wlan.node[7].app[0] externalId 8
scalar World_Wlan.node[8].app[0] internalId 682
scalar World_Wlan.node[8].app[0] moduleCreationTime 46
attr unit s
scalar World_Wlan.node[8].app[0] externalId 9
scalar World_Wlan.node[9].app[0] internalId 746
scalar World_Wlan.node[9].app[0] moduleCreationTime 46
attr unit s
scalar World_Wlan.node[9].app[0] externalId 10
scalar World_Wlan.node[10].app[0] internalId 810
scalar World_Wlan.node[10].app[0] moduleCreationTime 56
attr unit s
scalar World_Wlan.node[10].app[0] externalId 11
scalar World_Wlan.node[11].app[0] internalId 874
scalar World_Wlan.node[11].app[0] moduleCreationTime 76
attr unit s
scalar World_Wlan.node[11].app[0] externalId 12
scalar World_Wlan.node[12].app[0] internalId 938
scalar World_Wlan.node[12].app[0] moduleCreationTime 82.4
attr unit s
scalar World_Wlan.node[12].app[0] externalId 13
scalar World_Wlan.node[13].app[0] internalId 1002
scalar World_Wlan.node[13].app[0] moduleCreationTime 88.4
attr unit s
scalar World_Wlan.node[13].app[0] externalId 14
scalar World_Wlan.node[14].app[0] internalId 1066
scalar World_Wlan.node[14].app[0] moduleCreationTime 94
attr unit s
scalar World_Wlan.node[14].app[0] externalId 15
scalar World_Wlan.node[15].app[0] internalId 1130
scalar World_Wlan.node[15].app[0] moduleCreationTime 96.4
attr unit s
scalar World_Wlan.node[15].app[0] externalId 16
scalar World_Wlan.node[16].app[0] internalId 1194
scalar World_Wlan.node[16].app[0] moduleCreationTime 104
attr unit s
scalar World_Wlan.node[16].app[0] externalId 17
scalar World_Wlan.node[17].app[0] internalId 1258
scalar World_Wlan.node[17].app[0] moduleCreationTime 106
attr unit s
scalar World_Wlan.node[17].app[0] externalId 18
statistic World_Wlan.node[3].app[0] incidentAge:stats
field count 0
field mean -nan
field stddev -nan
field min -nan
field max -nan
field sum 0
field sqrsum 0
attr interpolationmode none
attr source incidentAge(packetReceived)
attr title "incidentAge, stats"
attr unit s
statistic World_Wlan.node[3].app[0] lastHopAge:stats
field count 0
field mean -nan
field stddev -nan
field min -nan
field max -nan
field sum 0
field sqrsum 0
attr interpolationmode none
attr source lastHopAge(packetReceived)
attr title "lastHopAge, stats"
attr unit s
scalar World_Wlan.node[3].app[0] packetReceived:count 0
attr interpolationmode none
attr source packetReceived
attr title "packets received, count"
scalar World_Wlan.node[3].app[0] packetReceived:sum(packetBytes) 0
attr interpolationmode none
attr source packetReceived
attr title "packets received, sum(packetBytes)"
scalar World_Wlan.node[3].app[0] packetSent:count 0
attr interpolationmode none
attr source packetSent
attr title "packets sent, count"
scalar World_Wlan.node[3].app[0] packetSent:sum(packetBytes) 0
attr interpolationmode none
attr source packetSent
attr title "packets sent, sum(packetBytes)"
scalar World_Wlan.node[3].app[1] "packets sent" 0
scalar World_Wlan.node[3].app[1] "packets received" 0
scalar World_Wlan.node[3].app[1] packetReceived:count 0
attr interpolationmode none
attr source packetReceived
attr title "packets received, count"
scalar World_Wlan.node[3].app[1] packetReceived:sum(packetBytes) 0
attr interpolationmode none
attr source packetReceived
attr title "packets received, sum(packetBytes)"
statistic World_Wlan.node[3].app[1] rcvdPkLifetime:stats
field count 0
field mean -nan
field stddev -nan
field min -nan
field max -nan
field sum 0
field sqrsum 0
attr interpolationmode none
attr source dataAge(packetReceived)
attr title "received packet lifetime, stats"
attr unit s
scalar World_Wlan.node[3].app[1] packetSent:count 0
attr interpolationmode none
attr source packetSent
attr title "packets sent, count"
scalar World_Wlan.node[3].app[1] packetSent:sum(packetBytes) 0
attr interpolationmode none
attr source packetSent
attr title "packets sent, sum(packetBytes)"
scalar World_Wlan.node[3].udp packetReceived:count 0
attr interpolationmode none
attr source packetReceived
attr title "packets received, count"
scalar World_Wlan.node[3].udp packetReceived:sum(packetBytes) 0
attr interpolationmode none
attr source packetReceived
attr title "packets received, sum(packetBytes)"
scalar World_Wlan.node[3].udp packetSent:count 0
attr interpolationmode none
attr source packetSent
attr title "packets sent, count"
scalar World_Wlan.node[3].udp packetSent:sum(packetBytes) 0
attr interpolationmode none
attr source packetSent
attr title "packets sent, sum(packetBytes)"
scalar World_Wlan.node[3].udp passedUpPk:count 0
attr interpolationmode none
attr source packetSentToUpper
attr title "packets passed up, count"
scalar World_Wlan.node[3].udp droppedPkWrongPort:count 0
attr interpolationmode none
attr source packetDropReasonIsNoPortFound(packetDropped)
attr title "packets dropped (wrong port), count"
scalar World_Wlan.node[3].udp droppedPkBadChecksum:count 0
attr interpolationmode none
attr source packetDropReasonIsIncorrectlyReceived(packetDropped)
attr title "packets dropped (checksum error), count"
scalar World_Wlan.node[3].ipv4.ip packetDropAddressResolutionFailed:count 0
attr interpolationmode none
attr source packetDropReasonIsAddressResolutionFailed(packetDropped)
attr title "packet drop: address resolution failed, count"
scalar World_Wlan.node[3].ipv4.ip packetDropAddressResolutionFailed:sum(packetBytes) 0
attr interpolationmode none
attr source packetDropReasonIsAddressResolutionFailed(packetDropped)
attr title "packet drop: address resolution failed, sum(packetBytes)"
scalar World_Wlan.node[3].ipv4.ip packetDropHopLimitReached:count 0
attr interpolationmode none
attr source packetDropReasonIsHopLimitReached(packetDropped)
attr title "packet drop: hop limit reached, count"
scalar World_Wlan.node[3].ipv4.ip packetDropHopLimitReached:sum(packetBytes) 0
attr interpolationmode none
attr source packetDropReasonIsHopLimitReached(packetDropped)
attr title "packet drop: hop limit reached, sum(packetBytes)"
scalar World_Wlan.node[3].ipv4.ip packetDropForwardingDisabled:count 0
attr interpolationmode none
attr source packetDropReasonIsForwardingDisabled(packetDropped)
attr title "packet drop: forwarding disabled, count"
scalar World_Wlan.node[3].ipv4.ip packetDropForwardingDisabled:sum(packetBytes) 0
attr interpolationmode none
attr source packetDropReasonIsForwardingDisabled(packetDropped)
attr title "packet drop: forwarding disabled, sum(packetBytes)"
scalar World_Wlan.node[3].ipv4.ip packetDropNoInterfaceFound:count 0
attr interpolationmode none
attr source packetDropReasonIsNoInterfaceFound(packetDropped)
attr title "packet drop: no interface found, count"
scalar World_Wlan.node[3].ipv4.ip packetDropNoInterfaceFound:sum(packetBytes) 0
attr interpolationmode none
attr source packetDropReasonIsNoInterfaceFound(packetDropped)
attr title "packet drop: no interface found, sum(packetBytes)"
scalar World_Wlan.node[3].ipv4.ip packetDropNoRouteFound:count 0
attr interpolationmode none
attr source packetDropReasonIsNoRouteFound(packetDropped)
attr title "packet drop: no route found, count"
scalar World_Wlan.node[3].ipv4.ip packetDropNoRouteFound:sum(packetBytes) 0
attr interpolationmode none
attr source packetDropReasonIsNoRouteFound(packetDropped)
attr title "packet drop: no route found, sum(packetBytes)"
scalar World_Wlan.node[3].ipv4.ip packetDropUndefined:count 0
attr interpolationmode none
attr source packetDropReasonIsUndefined(packetDropped)
attr title "packet drop: undefined, count"
scalar World_Wlan.node[3].ipv4.ip packetDropUndefined:sum(packetBytes) 0
attr interpolationmode none
attr source packetDropReasonIsUndefined(packetDropped)
attr title "packet drop: undefined, sum(packetBytes)"
scalar World_Wlan.node[3].ipv4.arp arpResolutionFailed:count 0
attr title "ARP failed resolutions, count"
scalar World_Wlan.node[3].ipv4.arp arpResolutionCompleted:count 0
attr title "ARP completed resolutions, count"
scalar World_Wlan.node[3].ipv4.arp arpResolutionInitiated:count 0
attr title "ARP initiated resolutions, count"
scalar World_Wlan.node[3].ipv4.arp arpReplySent:count 0
attr source arpReplySent
attr title "ARP replies sent, count"
scalar World_Wlan.node[3].ipv4.arp arpReplySent:sum(packetBytes) 0
attr source arpReplySent
attr title "ARP replies sent, sum(packetBytes)"
scalar World_Wlan.node[3].ipv4.arp arpRequestSent:count 0
attr source arpRequestSent
attr title "ARP request sent, count"
scalar World_Wlan.node[3].ipv4.arp arpRequestSent:sum(packetBytes) 0
attr source arpRequestSent
attr title "ARP request sent, sum(packetBytes)"
scalar World_Wlan.node[3].wlanNic[0].mac.dcf.channelAccess.pendingQueue packetPopped:count 0
attr interpolationmode none
attr title "packet popped, count"
scalar World_Wlan.node[3].wlanNic[0].mac.dcf.channelAccess.pendingQueue packetPopped:sum(packetBytes) 0
attr interpolationmode none
attr title "packet popped, sum(packetBytes)"
scalar World_Wlan.node[3].wlanNic[0].mac.dcf.channelAccess.pendingQueue queueLength:max -nan
attr interpolationmode sample-hold
attr source "count(packetPushed) - count(packetPopped) - count(packetRemoved) - count(packetDropped)"
attr title "queue length, max"
scalar World_Wlan.node[3].wlanNic[0].mac.dcf.channelAccess.pendingQueue queueLength:timeavg -nan
attr interpolationmode sample-hold
attr source "count(packetPushed) - count(packetPopped) - count(packetRemoved) - count(packetDropped)"
attr title "queue length, timeavg"
scalar World_Wlan.node[3].wlanNic[0].mac.dcf.channelAccess.pendingQueue packetPushed:count 0
attr interpolationmode none
attr title "packet pushed, count"
scalar World_Wlan.node[3].wlanNic[0].mac.dcf.channelAccess.pendingQueue packetPushed:sum(packetBytes) 0
attr interpolationmode none
attr title "packet pushed, sum(packetBytes)"
scalar World_Wlan.node[3].wlanNic[0].mac.dcf.channelAccess.pendingQueue packetDropQueueOverflow:count 0
attr interpolationmode none
attr source packetDropReasonIsQueueOverflow(packetDropped)
attr title "packet drops: queue overflow, count"
scalar World_Wlan.node[3].wlanNic[0].mac.dcf.channelAccess.pendingQueue packetDropQueueOverflow:sum(packetBytes) 0
attr interpolationmode none
attr source packetDropReasonIsQueueOverflow(packetDropped)
attr title "packet drops: queue overflow, sum(packetBytes)"
scalar World_Wlan.node[3].wlanNic[0].mac.dcf.channelAccess.pendingQueue packetRemoved:count 0
attr interpolationmode none
attr title "packets removed, count"
scalar World_Wlan.node[3].wlanNic[0].mac.dcf.channelAccess.pendingQueue packetRemoved:sum(packetBytes) 0
attr interpolationmode none
attr title "packets removed, sum(packetBytes)"
scalar World_Wlan.node[3].wlanNic[0].mac.dcf.channelAccess.inProgressFrames queueLength:max -nan
attr interpolationmode sample-hold
attr source "count(packetEnqueued) - count(packetDequeued)"
attr title "queue length, max"
scalar World_Wlan.node[3].wlanNic[0].mac.dcf.channelAccess.inProgressFrames queueLength:timeavg -nan
attr interpolationmode sample-hold
attr source "count(packetEnqueued) - count(packetDequeued)"
attr title "queue length, timeavg"
scalar World_Wlan.node[3].wlanNic[0].mac.dcf.channelAccess.contention channelAccessGranted:count 0
attr title "channel access granted, count"
scalar World_Wlan.node[3].wlanNic[0].mac.dcf.channelAccess.contention stateChanged:count 2
attr interpolationmode none
attr title "contention state changed, count"
scalar World_Wlan.node[3].wlanNic[0].mac.dcf.channelAccess channelOwnershipChanged:count 0
attr interpolationmode sample-hold
attr title "channel ownership, count"
scalar World_Wlan.node[3].wlanNic[0].mac.dcf.originatorMacDataService packetAggregated:count 0
attr title "packets aggregated, count"
scalar World_Wlan.node[3].wlanNic[0].mac.dcf.originatorMacDataService packetFragmented:count 0
attr title "packets fragmented, count"
scalar World_Wlan.node[3].wlanNic[0].mac.dcf.recipientMacDataService packetDeaggregated:count 0
attr title "packets deaggregated, count"
scalar World_Wlan.node[3].wlanNic[0].mac.dcf.recipientMacDataService packetDefragmented:count 0
attr title "packets defragmented, count"
scalar World_Wlan.node[3].wlanNic[0].mac.dcf.recipientMacDataService packetDropDuplicateDetected:count 0
attr interpolationmode none
attr source packetDropReasonIsDuplicateDetected(packetDropped)
attr title "packet drops: duplicate detected, count"
scalar World_Wlan.node[3].wlanNic[0].mac.dcf.recipientMacDataService packetDropDuplicateDetected:sum(packetBytes) 0
attr interpolationmode none
attr source packetDropReasonIsDuplicateDetected(packetDropped)
attr title "packet drops: duplicate detected, sum(packetBytes)"
scalar World_Wlan.node[3].wlanNic[0].mac.dcf.recoveryProcedure retryLimitReached:count 0
attr title "retry limit reached, count"
scalar World_Wlan.node[3].wlanNic[0].mac.dcf frameSequenceFinished:count 0
attr title "finished frame sequences, count"
scalar World_Wlan.node[3].wlanNic[0].mac.dcf packetReceivedFromPeer:count 0
attr interpolationmode none
attr title "packets received, count"
scalar World_Wlan.node[3].wlanNic[0].mac.dcf packetReceivedFromPeer:sum(packetBytes) 0
attr interpolationmode none
attr title "packets received, sum(packetBytes)"
scalar World_Wlan.node[3].wlanNic[0].mac.dcf packetReceivedFromPeerUnicast:count 0
attr interpolationmode none
attr source ieee80211Unicast(packetReceivedFromPeer)
attr title "packets received: unicast, count"
scalar World_Wlan.node[3].wlanNic[0].mac.dcf packetReceivedFromPeerUnicast:sum(packetBytes) 0
attr interpolationmode none
attr source ieee80211Unicast(packetReceivedFromPeer)
attr title "packets received: unicast, sum(packetBytes)"
scalar World_Wlan.node[3].wlanNic[0].mac.dcf packetReceivedFromPeerMulticast:count 0
attr interpolationmode none
attr source ieee80211Multicast(packetReceivedFromPeer)
attr title "packets received: multicast, count"
scalar World_Wlan.node[3].wlanNic[0].mac.dcf packetReceivedFromPeerMulticast:sum(packetBytes) 0
attr interpolationmode none
attr source ieee80211Multicast(packetReceivedFromPeer)
attr title "packets received: multicast, sum(packetBytes)"
scalar World_Wlan.node[3].wlanNic[0].mac.dcf packetReceivedFromPeerBroadcast:count 0
attr interpolationmode none
attr source ieee80211Broadcast(packetReceivedFromPeer)
attr title "packets received: broadcast, count"
scalar World_Wlan.node[3].wlanNic[0].mac.dcf packetReceivedFromPeerBroadcast:sum(packetBytes) 0
attr interpolationmode none
attr source ieee80211Broadcast(packetReceivedFromPeer)
attr title "packets received: broadcast, sum(packetBytes)"
scalar World_Wlan.node[3].wlanNic[0].mac.dcf packetReceivedFromPeerWithRetry:count 0
attr interpolationmode none
attr source ieee80211Retry(packetReceivedFromPeer)
attr title "packets received: with retry, count"
scalar World_Wlan.node[3].wlanNic[0].mac.dcf packetReceivedFromPeerWithRetry:sum(packetBytes) 0
attr interpolationmode none
attr source ieee80211Retry(packetReceivedFromPeer)
attr title "packets received: with retry, sum(packetBytes)"
scalar World_Wlan.node[3].wlanNic[0].mac.dcf packetReceivedFromPeerWithoutRetry:count 0
attr interpolationmode none
attr source ieee80211NotRetry(packetReceivedFromPeer)
attr title "packets received: without retry, count"
scalar World_Wlan.node[3].wlanNic[0].mac.dcf packetReceivedFromPeerWithoutRetry:sum(packetBytes) 0
attr interpolationmode none
attr source ieee80211NotRetry(packetReceivedFromPeer)
attr title "packets received: without retry, sum(packetBytes)"
scalar World_Wlan.node[3].wlanNic[0].mac.dcf packetSentToPeer:count 0
attr interpolationmode none
attr title "packets sent, count"
scalar World_Wlan.node[3].wlanNic[0].mac.dcf packetSentToPeer:sum(packetBytes) 0
attr interpolationmode none
attr title "packets sent, sum(packetBytes)"
scalar World_Wlan.node[3].wlanNic[0].mac.dcf packetSentToPeerUnicast:count 0
attr interpolationmode none
attr source ieee80211Unicast(packetSentToPeer)
attr title "packets sent: unicast, count"
scalar World_Wlan.node[3].wlanNic[0].mac.dcf packetSentToPeerUnicast:sum(packetBytes) 0
attr interpolationmode none
attr source ieee80211Unicast(packetSentToPeer)
attr title "packets sent: unicast, sum(packetBytes)"
scalar World_Wlan.node[3].wlanNic[0].mac.dcf packetSentToPeerMulticast:count 0
attr interpolationmode none
attr source ieee80211Multicast(packetSentToPeer)
attr title "packets sent: multicast, count"
scalar World_Wlan.node[3].wlanNic[0].mac.dcf packetSentToPeerMulticast:sum(packetBytes) 0
attr interpolationmode none
attr source ieee80211Multicast(packetSentToPeer)
attr title "packets sent: multicast, sum(packetBytes)"
scalar World_Wlan.node[3].wlanNic[0].mac.dcf packetSentToPeerBroadcast:count 0
attr interpolationmode none
attr source ieee80211Broadcast(packetSentToPeer)
attr title "packets sent: broadcast , count"
scalar World_Wlan.node[3].wlanNic[0].mac.dcf packetSentToPeerBroadcast:sum(packetBytes) 0
attr interpolationmode none
attr source ieee80211Broadcast(packetSentToPeer)
attr title "packets sent: broadcast , sum(packetBytes)"
scalar World_Wlan.node[3].wlanNic[0].mac.dcf packetSentToPeerWithRetry:count 0
attr interpolationmode none
attr source ieee80211Retry(packetSentToPeer)
attr title "packets sent: with retry, count"
scalar World_Wlan.node[3].wlanNic[0].mac.dcf packetSentToPeerWithRetry:sum(packetBytes) 0
attr interpolationmode none
attr source ieee80211Retry(packetSentToPeer)
attr title "packets sent: with retry, sum(packetBytes)"
scalar World_Wlan.node[3].wlanNic[0].mac.dcf packetSentToPeerWithoutRetry:count 0
attr interpolationmode none
attr source ieee80211NotRetry(packetSentToPeer)
attr title "packets sent: without retry, count"
scalar World_Wlan.node[3].wlanNic[0].mac.dcf packetSentToPeerWithoutRetry:sum(packetBytes) 0
attr interpolationmode none
attr source ieee80211NotRetry(packetSentToPeer)
attr title "packets sent: without retry, sum(packetBytes)"
scalar World_Wlan.node[3].wlanNic[0].mac.dcf packetDrop:count 0
attr interpolationmode none
attr source packetDropped
attr title "packet drops, count"
scalar World_Wlan.node[3].wlanNic[0].mac.dcf packetDrop:sum(packetBytes) 0
attr interpolationmode none
attr source packetDropped
attr title "packet drops, sum(packetBytes)"
scalar World_Wlan.node[3].wlanNic[0].mac.dcf packetDropNotAddressedToUs:count 0
attr interpolationmode none
attr source packetDropReasonIsNotAddressedToUs(packetDropped)
attr title "packet drops: not addressed to us, count"
scalar World_Wlan.node[3].wlanNic[0].mac.dcf packetDropNotAddressedToUs:sum(packetBytes) 0
attr interpolationmode none
attr source packetDropReasonIsNotAddressedToUs(packetDropped)
attr title "packet drops: not addressed to us, sum(packetBytes)"
scalar World_Wlan.node[3].wlanNic[0].mac.dcf packetDropQueueOverflow:count 0
attr interpolationmode none
attr source packetDropReasonIsQueueOverflow(packetDropped)
attr title "packet drops: queue overflow, count"
scalar World_Wlan.node[3].wlanNic[0].mac.dcf packetDropQueueOverflow:sum(packetBytes) 0
attr interpolationmode none
attr source packetDropReasonIsQueueOverflow(packetDropped)
attr title "packet drops: queue overflow, sum(packetBytes)"
scalar World_Wlan.node[3].wlanNic[0].mac.dcf packetDropRetryLimitReached:count 0
attr interpolationmode none
attr source packetDropReasonIsRetryLimitReached(packetDropped)
attr title "packet drops: retry limit reached, count"
scalar World_Wlan.node[3].wlanNic[0].mac.dcf packetDropRetryLimitReached:sum(packetBytes) 0
attr interpolationmode none
attr source packetDropReasonIsRetryLimitReached(packetDropped)
attr title "packet drops: retry limit reached, sum(packetBytes)"
scalar World_Wlan.node[3].wlanNic[0].mac.dcf linkBroken:count 0
attr interpolationmode none
attr title "link breaks, count"
scalar World_Wlan.node[3].wlanNic[0].mac packetReceivedFromLower:count 0
attr interpolationmode none
attr title "packets received from lower layer, count"
scalar World_Wlan.node[3].wlanNic[0].mac packetReceivedFromLower:sum(packetBytes) 0
attr interpolationmode none
attr title "packets received from lower layer, sum(packetBytes)"
scalar World_Wlan.node[3].wlanNic[0].mac packetSentToLower:count 0
attr interpolationmode none
attr title "packets sent to lower layer, count"
scalar World_Wlan.node[3].wlanNic[0].mac packetSentToLower:sum(packetBytes) 0
attr interpolationmode none
attr title "packets sent to lower layer, sum(packetBytes)"
scalar World_Wlan.node[3].wlanNic[0].mac packetReceivedFromUpper:count 0
attr interpolationmode none
attr title "packets received from upper layer, count"
scalar World_Wlan.node[3].wlanNic[0].mac packetReceivedFromUpper:sum(packetBytes) 0
attr interpolationmode none
attr title "packets received from upper layer, sum(packetBytes)"
scalar World_Wlan.node[3].wlanNic[0].mac packetSentToUpper:count 0
attr interpolationmode none
attr title "packets sent to upper layer, count"
scalar World_Wlan.node[3].wlanNic[0].mac packetSentToUpper:sum(packetBytes) 0
attr interpolationmode none
attr title "packets sent to upper layer, sum(packetBytes)"
scalar World_Wlan.node[3].wlanNic[0].mac packetDrop:count 0
attr interpolationmode none
attr source packetDropped
attr title "packet drops, count"
scalar World_Wlan.node[3].wlanNic[0].mac packetDrop:sum(packetBytes) 0
attr interpolationmode none
attr source packetDropped
attr title "packet drops, sum(packetBytes)"
scalar World_Wlan.node[3].wlanNic[0].mac packetDropIncorrectlyReceived:count 0
attr interpolationmode none
attr source packetDropReasonIsIncorrectlyReceived(packetDropped)
attr title "packet drops: incorrectly received, count"
scalar World_Wlan.node[3].wlanNic[0].mac packetDropIncorrectlyReceived:sum(packetBytes) 0
attr interpolationmode none
attr source packetDropReasonIsIncorrectlyReceived(packetDropped)
attr title "packet drops: incorrectly received, sum(packetBytes)"
scalar World_Wlan.node[3].wlanNic[0].mac packetDropNotAddressedToUs:count 0
attr interpolationmode none
attr source packetDropReasonIsNotAddressedToUs(packetDropped)
attr title "packet drops: not addressed to us, count"
scalar World_Wlan.node[3].wlanNic[0].mac packetDropNotAddressedToUs:sum(packetBytes) 0
attr interpolationmode none
attr source packetDropReasonIsNotAddressedToUs(packetDropped)
attr title "packet drops: not addressed to us, sum(packetBytes)"
scalar World_Wlan.node[3].wlanNic[0].mac packetDropQueueOverflow:count 0
attr interpolationmode none
attr source packetDropReasonIsQueueOverflow(packetDropped)
attr title "packet drops: queue overflow, count"
scalar World_Wlan.node[3].wlanNic[0].mac packetDropQueueOverflow:sum(packetBytes) 0
attr interpolationmode none
attr source packetDropReasonIsQueueOverflow(packetDropped)
attr title "packet drops: queue overflow, sum(packetBytes)"
scalar World_Wlan.node[3].wlanNic[0].mac packetDropRetryLimitReached:count 0
attr interpolationmode none
attr source packetDropReasonIsRetryLimitReached(packetDropped)
attr title "packet drops: retry limit reached, count"
scalar World_Wlan.node[3].wlanNic[0].mac packetDropRetryLimitReached:sum(packetBytes) 0
attr interpolationmode none
attr source packetDropReasonIsRetryLimitReached(packetDropped)
attr title "packet drops: retry limit reached, sum(packetBytes)"
scalar World_Wlan.node[3].wlanNic[0].mac packetDropDuplicateDetected:count 0
attr interpolationmode none
attr source packetDropReasonIsDuplicateDetected(packetDropped)
attr title "packet drops: duplicate detected, count"
scalar World_Wlan.node[3].wlanNic[0].mac packetDropDuplicateDetected:sum(packetBytes) 0
attr interpolationmode none
attr source packetDropReasonIsDuplicateDetected(packetDropped)
attr title "packet drops: duplicate detected, sum(packetBytes)"
scalar World_Wlan.node[3].wlanNic[0].mac packetDropOther:count 0
attr interpolationmode none
attr source packetDropReasonIsOther(packetDropped)
attr title "packet drops: other, count"
scalar World_Wlan.node[3].wlanNic[0].mac packetDropOther:sum(packetBytes) 0
attr interpolationmode none
attr source packetDropReasonIsOther(packetDropped)
attr title "packet drops: other, sum(packetBytes)"
scalar World_Wlan.node[3].wlanNic[0].mac linkBroken:count 0
attr interpolationmode none
attr title "link breaks, count"
scalar World_Wlan.node[3].wlanNic[0].radio radioMode:count 3
attr interpolationmode sample-hold
attr source radioModeChanged
attr title "Radio mode, count"
scalar World_Wlan.node[3].wlanNic[0].radio receptionState:count 1
attr interpolationmode sample-hold
attr source receptionStateChanged
attr title "Radio reception state, count"
scalar World_Wlan.node[3].wlanNic[0].radio transmissionState:count 0
attr interpolationmode sample-hold
attr source transmissionStateChanged
attr title "Radio transmission state, count"
scalar World_Wlan.node[18].app[0] internalId 1322
scalar World_Wlan.node[18].app[0] moduleCreationTime 108.8
attr unit s
scalar World_Wlan.node[18].app[0] externalId 19
scalar World_Wlan.radioMedium.propagation "Arrival computation count" 6819
scalar World_Wlan.radioMedium "transmission count" 375
scalar World_Wlan.radioMedium "signal send count" 6819
scalar World_Wlan.radioMedium "reception computation count" 6819
scalar World_Wlan.radioMedium "interference computation count" 18232
scalar World_Wlan.radioMedium "reception decision computation count" 1956
scalar World_Wlan.radioMedium "listening decision computation count" 9690
scalar World_Wlan.radioMedium "reception cache hit" 83.519033232628
attr unit %
scalar World_Wlan.radioMedium "interference cache hit" 66.666666666667
attr unit %
scalar World_Wlan.radioMedium "noise cache hit" 0
attr unit %
scalar World_Wlan.radioMedium "snir cache hit" 50
attr unit %
scalar World_Wlan.radioMedium "reception decision cache hit" 50
attr unit %
scalar World_Wlan.radioMedium "reception result cache hit" 0
attr unit %
statistic World_Wlan.node[0].app[0] incidentAge:stats
field count 32
field mean 5.0089896825338
field stddev 2.4369082951853
field min 1.004406429788
field max 9.01492434997
field sum 160.28766984108
field sqrsum 986.9734676848
attr interpolationmode none
attr source incidentAge(packetReceived)
attr title "incidentAge, stats"
attr unit s
statistic World_Wlan.node[0].app[0] lastHopAge:stats
field count 32
field mean 0.0056662664732812
field stddev 0.0025357640026849
field min 0.001678050089
field max 0.010517649698
field sum 0.181320527145
field sqrsum 0.0012267434952761
attr interpolationmode none
attr source lastHopAge(packetReceived)
attr title "lastHopAge, stats"
attr unit s
scalar World_Wlan.node[0].app[0] packetReceived:count 32
attr interpolationmode none
attr source packetReceived
attr title "packets received, count"
scalar World_Wlan.node[0].app[0] packetReceived:sum(packetBytes) 96000
attr interpolationmode none
attr source packetReceived
attr title "packets received, sum(packetBytes)"
scalar World_Wlan.node[0].app[0] packetSent:count 8
attr interpolationmode none
attr source packetSent
attr title "packets sent, count"
scalar World_Wlan.node[0].app[0] packetSent:sum(packetBytes) 24000
attr interpolationmode none
attr source packetSent
attr title "packets sent, sum(packetBytes)"
scalar World_Wlan.node[0].app[1] "packets sent" 0
scalar World_Wlan.node[0].app[1] "packets received" 0
scalar World_Wlan.node[0].app[1] packetReceived:count 0
attr interpolationmode none
attr source packetReceived
attr title "packets received, count"
scalar World_Wlan.node[0].app[1] packetReceived:sum(packetBytes) 0
attr interpolationmode none
attr source packetReceived
attr title "packets received, sum(packetBytes)"
statistic World_Wlan.node[0].app[1] rcvdPkLifetime:stats
field count 0
field mean -nan
field stddev -nan
field min -nan
field max -nan
field sum 0
field sqrsum 0
attr interpolationmode none
attr source dataAge(packetReceived)
attr title "received packet lifetime, stats"
attr unit s
scalar World_Wlan.node[0].app[1] packetSent:count 0
attr interpolationmode none
attr source packetSent
attr title "packets sent, count"
scalar World_Wlan.node[0].app[1] packetSent:sum(packetBytes) 0
attr interpolationmode none
attr source packetSent
attr title "packets sent, sum(packetBytes)"
scalar World_Wlan.node[0].udp packetReceived:count 32
attr interpolationmode none
attr source packetReceived
attr title "packets received, count"
scalar World_Wlan.node[0].udp packetReceived:sum(packetBytes) 96256
attr interpolationmode none
attr source packetReceived
attr title "packets received, sum(packetBytes)"
scalar World_Wlan.node[0].udp packetSent:count 8
attr interpolationmode none
attr source packetSent
attr title "packets sent, count"
scalar World_Wlan.node[0].udp packetSent:sum(packetBytes) 24064
attr interpolationmode none
attr source packetSent
attr title "packets sent, sum(packetBytes)"
scalar World_Wlan.node[0].udp passedUpPk:count 32
attr interpolationmode none
attr source packetSentToUpper
attr title "packets passed up, count"
scalar World_Wlan.node[0].udp droppedPkWrongPort:count 0
attr interpolationmode none
attr source packetDropReasonIsNoPortFound(packetDropped)
attr title "packets dropped (wrong port), count"
scalar World_Wlan.node[0].udp droppedPkBadChecksum:count 0
attr interpolationmode none
attr source packetDropReasonIsIncorrectlyReceived(packetDropped)
attr title "packets dropped (checksum error), count"
scalar World_Wlan.node[0].ipv4.ip packetDropAddressResolutionFailed:count 0
attr interpolationmode none
attr source packetDropReasonIsAddressResolutionFailed(packetDropped)
attr title "packet drop: address resolution failed, count"
scalar World_Wlan.node[0].ipv4.ip packetDropAddressResolutionFailed:sum(packetBytes) 0
attr interpolationmode none
attr source packetDropReasonIsAddressResolutionFailed(packetDropped)
attr title "packet drop: address resolution failed, sum(packetBytes)"
scalar World_Wlan.node[0].ipv4.ip packetDropHopLimitReached:count 0
attr interpolationmode none
attr source packetDropReasonIsHopLimitReached(packetDropped)
attr title "packet drop: hop limit reached, count"
scalar World_Wlan.node[0].ipv4.ip packetDropHopLimitReached:sum(packetBytes) 0
attr interpolationmode none
attr source packetDropReasonIsHopLimitReached(packetDropped)
attr title "packet drop: hop limit reached, sum(packetBytes)"
scalar World_Wlan.node[0].ipv4.ip packetDropForwardingDisabled:count 0
attr interpolationmode none
attr source packetDropReasonIsForwardingDisabled(packetDropped)
attr title "packet drop: forwarding disabled, count"
scalar World_Wlan.node[0].ipv4.ip packetDropForwardingDisabled:sum(packetBytes) 0
attr interpolationmode none
attr source packetDropReasonIsForwardingDisabled(packetDropped)
attr title "packet drop: forwarding disabled, sum(packetBytes)"
scalar World_Wlan.node[0].ipv4.ip packetDropNoInterfaceFound:count 0
attr interpolationmode none
attr source packetDropReasonIsNoInterfaceFound(packetDropped)
attr title "packet drop: no interface found, count"
scalar World_Wlan.node[0].ipv4.ip packetDropNoInterfaceFound:sum(packetBytes) 0
attr interpolationmode none
attr source packetDropReasonIsNoInterfaceFound(packetDropped)
attr title "packet drop: no interface found, sum(packetBytes)"
scalar World_Wlan.node[0].ipv4.ip packetDropNoRouteFound:count 0
attr interpolationmode none
attr source packetDropReasonIsNoRouteFound(packetDropped)
attr title "packet drop: no route found, count"
scalar World_Wlan.node[0].ipv4.ip packetDropNoRouteFound:sum(packetBytes) 0
attr interpolationmode none
attr source packetDropReasonIsNoRouteFound(packetDropped)
attr title "packet drop: no route found, sum(packetBytes)"
scalar World_Wlan.node[0].ipv4.ip packetDropUndefined:count 0
attr interpolationmode none
attr source packetDropReasonIsUndefined(packetDropped)
attr title "packet drop: undefined, count"
scalar World_Wlan.node[0].ipv4.ip packetDropUndefined:sum(packetBytes) 0
attr interpolationmode none
attr source packetDropReasonIsUndefined(packetDropped)
attr title "packet drop: undefined, sum(packetBytes)"
scalar World_Wlan.node[0].ipv4.arp arpResolutionFailed:count 0
attr title "ARP failed resolutions, count"
scalar World_Wlan.node[0].ipv4.arp arpResolutionCompleted:count 0
attr title "ARP completed resolutions, count"
scalar World_Wlan.node[0].ipv4.arp arpResolutionInitiated:count 0
attr title "ARP initiated resolutions, count"
scalar World_Wlan.node[0].ipv4.arp arpReplySent:count 0
attr source arpReplySent
attr title "ARP replies sent, count"
scalar World_Wlan.node[0].ipv4.arp arpReplySent:sum(packetBytes) 0
attr source arpReplySent
attr title "ARP replies sent, sum(packetBytes)"
scalar World_Wlan.node[0].ipv4.arp arpRequestSent:count 0
attr source arpRequestSent
attr title "ARP request sent, count"
scalar World_Wlan.node[0].ipv4.arp arpRequestSent:sum(packetBytes) 0
attr source arpRequestSent
attr title "ARP request sent, sum(packetBytes)"
scalar World_Wlan.node[0].wlanNic[0].mac.dcf.channelAccess.pendingQueue packetPopped:count 16
attr interpolationmode none
attr title "packet popped, count"
scalar World_Wlan.node[0].wlanNic[0].mac.dcf.channelAccess.pendingQueue packetPopped:sum(packetBytes) 24960
attr interpolationmode none
attr title "packet popped, sum(packetBytes)"
scalar World_Wlan.node[0].wlanNic[0].mac.dcf.channelAccess.pendingQueue queueLength:max 2
attr interpolationmode sample-hold
attr source "count(packetPushed) - count(packetPopped) - count(packetRemoved) - count(packetDropped)"
attr title "queue length, max"
scalar World_Wlan.node[0].wlanNic[0].mac.dcf.channelAccess.pendingQueue queueLength:timeavg 0.0051885747293395
attr interpolationmode sample-hold
attr source "count(packetPushed) - count(packetPopped) - count(packetRemoved) - count(packetDropped)"
attr title "queue length, timeavg"
scalar World_Wlan.node[0].wlanNic[0].mac.dcf.channelAccess.pendingQueue packetPushed:count 16
attr interpolationmode none
attr title "packet pushed, count"
scalar World_Wlan.node[0].wlanNic[0].mac.dcf.channelAccess.pendingQueue packetPushed:sum(packetBytes) 24960
attr interpolationmode none
attr title "packet pushed, sum(packetBytes)"
scalar World_Wlan.node[0].wlanNic[0].mac.dcf.channelAccess.pendingQueue packetDropQueueOverflow:count 0
attr interpolationmode none
attr source packetDropReasonIsQueueOverflow(packetDropped)
attr title "packet drops: queue overflow, count"
scalar World_Wlan.node[0].wlanNic[0].mac.dcf.channelAccess.pendingQueue packetDropQueueOverflow:sum(packetBytes) 0
attr interpolationmode none
attr source packetDropReasonIsQueueOverflow(packetDropped)
attr title "packet drops: queue overflow, sum(packetBytes)"
scalar World_Wlan.node[0].wlanNic[0].mac.dcf.channelAccess.pendingQueue packetRemoved:count 0
attr interpolationmode none
attr title "packets removed, count"
scalar World_Wlan.node[0].wlanNic[0].mac.dcf.channelAccess.pendingQueue packetRemoved:sum(packetBytes) 0
attr interpolationmode none
attr title "packets removed, sum(packetBytes)"
scalar World_Wlan.node[0].wlanNic[0].mac.dcf.channelAccess.inProgressFrames queueLength:max 2
attr interpolationmode sample-hold
attr source "count(packetEnqueued) - count(packetDequeued)"
attr title "queue length, max"
scalar World_Wlan.node[0].wlanNic[0].mac.dcf.channelAccess.inProgressFrames queueLength:timeavg 0.0040681680497087
attr interpolationmode sample-hold
attr source "count(packetEnqueued) - count(packetDequeued)"
attr title "queue length, timeavg"
scalar World_Wlan.node[0].wlanNic[0].mac.dcf.channelAccess.contention channelAccessGranted:count 24
attr title "channel access granted, count"
scalar World_Wlan.node[0].wlanNic[0].mac.dcf.channelAccess.contention stateChanged:count 692
attr interpolationmode none
attr title "contention state changed, count"
scalar World_Wlan.node[0].wlanNic[0].mac.dcf.channelAccess channelOwnershipChanged:count 48
attr interpolationmode sample-hold
attr title "channel ownership, count"
scalar World_Wlan.node[0].wlanNic[0].mac.dcf.originatorMacDataService packetAggregated:count 0
attr title "packets aggregated, count"
scalar World_Wlan.node[0].wlanNic[0].mac.dcf.originatorMacDataService packetFragmented:count 8
attr title "packets fragmented, count"
scalar World_Wlan.node[0].wlanNic[0].mac.dcf.recipientMacDataService packetDeaggregated:count 0
attr title "packets deaggregated, count"
scalar World_Wlan.node[0].wlanNic[0].mac.dcf.recipientMacDataService packetDefragmented:count 80
attr title "packets defragmented, count"
scalar World_Wlan.node[0].wlanNic[0].mac.dcf.recipientMacDataService packetDropDuplicateDetected:count 0
attr interpolationmode none
attr source packetDropReasonIsDuplicateDetected(packetDropped)
attr title "packet drops: duplicate detected, count"
scalar World_Wlan.node[0].wlanNic[0].mac.dcf.recipientMacDataService packetDropDuplicateDetected:sum(packetBytes) 0
attr interpolationmode none
attr source packetDropReasonIsDuplicateDetected(packetDropped)
attr title "packet drops: duplicate detected, sum(packetBytes)"
scalar World_Wlan.node[0].wlanNic[0].mac.dcf.recoveryProcedure retryLimitReached:count 0
attr title "retry limit reached, count"
scalar World_Wlan.node[0].wlanNic[0].mac.dcf frameSequenceFinished:count 24
attr title "finished frame sequences, count"
scalar World_Wlan.node[0].wlanNic[0].mac.dcf packetReceivedFromPeer:count 129
attr interpolationmode none
attr title "packets received, count"
scalar World_Wlan.node[0].wlanNic[0].mac.dcf packetReceivedFromPeer:sum(packetBytes) 132104
attr interpolationmode none
attr title "packets received, sum(packetBytes)"
scalar World_Wlan.node[0].wlanNic[0].mac.dcf packetReceivedFromPeerUnicast:count 0
attr interpolationmode none
attr source ieee80211Unicast(packetReceivedFromPeer)
attr title "packets received: unicast, count"
scalar World_Wlan.node[0].wlanNic[0].mac.dcf packetReceivedFromPeerUnicast:sum(packetBytes) 0
attr interpolationmode none
attr source ieee80211Unicast(packetReceivedFromPeer)
attr title "packets received: unicast, sum(packetBytes)"
scalar World_Wlan.node[0].wlanNic[0].mac.dcf packetReceivedFromPeerMulticast:count 129
attr interpolationmode none
attr source ieee80211Multicast(packetReceivedFromPeer)
attr title "packets received: multicast, count"
scalar World_Wlan.node[0].wlanNic[0].mac.dcf packetReceivedFromPeerMulticast:sum(packetBytes) 132104
attr interpolationmode none
attr source ieee80211Multicast(packetReceivedFromPeer)
attr title "packets received: multicast, sum(packetBytes)"
scalar World_Wlan.node[0].wlanNic[0].mac.dcf packetReceivedFromPeerBroadcast:count 0
attr interpolationmode none
attr source ieee80211Broadcast(packetReceivedFromPeer)
attr title "packets received: broadcast, count"
scalar World_Wlan.node[0].wlanNic[0].mac.dcf packetReceivedFromPeerBroadcast:sum(packetBytes) 0
attr interpolationmode none
attr source ieee80211Broadcast(packetReceivedFromPeer)
attr title "packets received: broadcast, sum(packetBytes)"
scalar World_Wlan.node[0].wlanNic[0].mac.dcf packetReceivedFromPeerWithRetry:count 0
attr interpolationmode none
attr source ieee80211Retry(packetReceivedFromPeer)
attr title "packets received: with retry, count"
scalar World_Wlan.node[0].wlanNic[0].mac.dcf packetReceivedFromPeerWithRetry:sum(packetBytes) 0
attr interpolationmode none
attr source ieee80211Retry(packetReceivedFromPeer)
attr title "packets received: with retry, sum(packetBytes)"
scalar World_Wlan.node[0].wlanNic[0].mac.dcf packetReceivedFromPeerWithoutRetry:count 129
attr interpolationmode none
attr source ieee80211NotRetry(packetReceivedFromPeer)
attr title "packets received: without retry, count"
scalar World_Wlan.node[0].wlanNic[0].mac.dcf packetReceivedFromPeerWithoutRetry:sum(packetBytes) 132104
attr interpolationmode none
attr source ieee80211NotRetry(packetReceivedFromPeer)
attr title "packets received: without retry, sum(packetBytes)"
scalar World_Wlan.node[0].wlanNic[0].mac.dcf packetSentToPeer:count 24
attr interpolationmode none
attr title "packets sent, count"
scalar World_Wlan.node[0].wlanNic[0].mac.dcf packetSentToPeer:sum(packetBytes) 25184
attr interpolationmode none
attr title "packets sent, sum(packetBytes)"
scalar World_Wlan.node[0].wlanNic[0].mac.dcf packetSentToPeerUnicast:count 0
attr interpolationmode none
attr source ieee80211Unicast(packetSentToPeer)
attr title "packets sent: unicast, count"
scalar World_Wlan.node[0].wlanNic[0].mac.dcf packetSentToPeerUnicast:sum(packetBytes) 0
attr interpolationmode none
attr source ieee80211Unicast(packetSentToPeer)
attr title "packets sent: unicast, sum(packetBytes)"
scalar World_Wlan.node[0].wlanNic[0].mac.dcf packetSentToPeerMulticast:count 24
attr interpolationmode none
attr source ieee80211Multicast(packetSentToPeer)
attr title "packets sent: multicast, count"
scalar World_Wlan.node[0].wlanNic[0].mac.dcf packetSentToPeerMulticast:sum(packetBytes) 25184
attr interpolationmode none
attr source ieee80211Multicast(packetSentToPeer)
attr title "packets sent: multicast, sum(packetBytes)"
scalar World_Wlan.node[0].wlanNic[0].mac.dcf packetSentToPeerBroadcast:count 0
attr interpolationmode none
attr source ieee80211Broadcast(packetSentToPeer)
attr title "packets sent: broadcast , count"
scalar World_Wlan.node[0].wlanNic[0].mac.dcf packetSentToPeerBroadcast:sum(packetBytes) 0
attr interpolationmode none
attr source ieee80211Broadcast(packetSentToPeer)
attr title "packets sent: broadcast , sum(packetBytes)"
scalar World_Wlan.node[0].wlanNic[0].mac.dcf packetSentToPeerWithRetry:count 0
attr interpolationmode none
attr source ieee80211Retry(packetSentToPeer)
attr title "packets sent: with retry, count"
scalar World_Wlan.node[0].wlanNic[0].mac.dcf packetSentToPeerWithRetry:sum(packetBytes) 0
attr interpolationmode none
attr source ieee80211Retry(packetSentToPeer)
attr title "packets sent: with retry, sum(packetBytes)"
scalar World_Wlan.node[0].wlanNic[0].mac.dcf packetSentToPeerWithoutRetry:count 24
attr interpolationmode none
attr source ieee80211NotRetry(packetSentToPeer)
attr title "packets sent: without retry, count"
scalar World_Wlan.node[0].wlanNic[0].mac.dcf packetSentToPeerWithoutRetry:sum(packetBytes) 25184
attr interpolationmode none
attr source ieee80211NotRetry(packetSentToPeer)
attr title "packets sent: without retry, sum(packetBytes)"
scalar World_Wlan.node[0].wlanNic[0].mac.dcf packetDrop:count 0
attr interpolationmode none
attr source packetDropped
attr title "packet drops, count"
scalar World_Wlan.node[0].wlanNic[0].mac.dcf packetDrop:sum(packetBytes) 0
attr interpolationmode none
attr source packetDropped
attr title "packet drops, sum(packetBytes)"
scalar World_Wlan.node[0].wlanNic[0].mac.dcf packetDropNotAddressedToUs:count 0
attr interpolationmode none
attr source packetDropReasonIsNotAddressedToUs(packetDropped)
attr title "packet drops: not addressed to us, count"
scalar World_Wlan.node[0].wlanNic[0].mac.dcf packetDropNotAddressedToUs:sum(packetBytes) 0
attr interpolationmode none
attr source packetDropReasonIsNotAddressedToUs(packetDropped)
attr title "packet drops: not addressed to us, sum(packetBytes)"
scalar World_Wlan.node[0].wlanNic[0].mac.dcf packetDropQueueOverflow:count 0
attr interpolationmode none
attr source packetDropReasonIsQueueOverflow(packetDropped)
attr title "packet drops: queue overflow, count"
scalar World_Wlan.node[0].wlanNic[0].mac.dcf packetDropQueueOverflow:sum(packetBytes) 0
attr interpolationmode none
attr source packetDropReasonIsQueueOverflow(packetDropped)
attr title "packet drops: queue overflow, sum(packetBytes)"
scalar World_Wlan.node[0].wlanNic[0].mac.dcf packetDropRetryLimitReached:count 0
attr interpolationmode none
attr source packetDropReasonIsRetryLimitReached(packetDropped)
attr title "packet drops: retry limit reached, count"
scalar World_Wlan.node[0].wlanNic[0].mac.dcf packetDropRetryLimitReached:sum(packetBytes) 0
attr interpolationmode none
attr source packetDropReasonIsRetryLimitReached(packetDropped)
attr title "packet drops: retry limit reached, sum(packetBytes)"
scalar World_Wlan.node[0].wlanNic[0].mac.dcf linkBroken:count 0
attr interpolationmode none
attr title "link breaks, count"
scalar World_Wlan.node[0].wlanNic[0].mac packetReceivedFromLower:count 132
attr interpolationmode none
attr title "packets received from lower layer, count"
scalar World_Wlan.node[0].wlanNic[0].mac packetReceivedFromLower:sum(packetBytes) 134456
attr interpolationmode none
attr title "packets received from lower layer, sum(packetBytes)"
scalar World_Wlan.node[0].wlanNic[0].mac packetSentToLower:count 24
attr interpolationmode none
attr title "packets sent to lower layer, count"
scalar World_Wlan.node[0].wlanNic[0].mac packetSentToLower:sum(packetBytes) 25184
attr interpolationmode none
attr title "packets sent to lower layer, sum(packetBytes)"
scalar World_Wlan.node[0].wlanNic[0].mac packetReceivedFromUpper:count 16
attr interpolationmode none
attr title "packets received from upper layer, count"
scalar World_Wlan.node[0].wlanNic[0].mac packetReceivedFromUpper:sum(packetBytes) 24512
attr interpolationmode none
attr title "packets received from upper layer, sum(packetBytes)"
scalar World_Wlan.node[0].wlanNic[0].mac packetSentToUpper:count 80
attr interpolationmode none
attr title "packets sent to upper layer, count"
scalar World_Wlan.node[0].wlanNic[0].mac packetSentToUpper:sum(packetBytes) 116352
attr interpolationmode none
attr title "packets sent to upper layer, sum(packetBytes)"
scalar World_Wlan.node[0].wlanNic[0].mac packetDrop:count 3
attr interpolationmode none
attr source packetDropped
attr title "packet drops, count"
scalar World_Wlan.node[0].wlanNic[0].mac packetDrop:sum(packetBytes) 2352
attr interpolationmode none
attr source packetDropped
attr title "packet drops, sum(packetBytes)"
scalar World_Wlan.node[0].wlanNic[0].mac packetDropIncorrectlyReceived:count 3
attr interpolationmode none
attr source packetDropReasonIsIncorrectlyReceived(packetDropped)
attr title "packet drops: incorrectly received, count"
scalar World_Wlan.node[0].wlanNic[0].mac packetDropIncorrectlyReceived:sum(packetBytes) 2352
attr interpolationmode none
attr source packetDropReasonIsIncorrectlyReceived(packetDropped)
attr title "packet drops: incorrectly received, sum(packetBytes)"
scalar World_Wlan.node[0].wlanNic[0].mac packetDropNotAddressedToUs:count 0
attr interpolationmode none
attr source packetDropReasonIsNotAddressedToUs(packetDropped)
attr title "packet drops: not addressed to us, count"
scalar World_Wlan.node[0].wlanNic[0].mac packetDropNotAddressedToUs:sum(packetBytes) 0
attr interpolationmode none
attr source packetDropReasonIsNotAddressedToUs(packetDropped)
attr title "packet drops: not addressed to us, sum(packetBytes)"
scalar World_Wlan.node[0].wlanNic[0].mac packetDropQueueOverflow:count 0
attr interpolationmode none
attr source packetDropReasonIsQueueOverflow(packetDropped)
attr title "packet drops: queue overflow, count"
scalar World_Wlan.node[0].wlanNic[0].mac packetDropQueueOverflow:sum(packetBytes) 0
attr interpolationmode none
attr source packetDropReasonIsQueueOverflow(packetDropped)
attr title "packet drops: queue overflow, sum(packetBytes)"
scalar World_Wlan.node[0].wlanNic[0].mac packetDropRetryLimitReached:count 0
attr interpolationmode none
attr source packetDropReasonIsRetryLimitReached(packetDropped)
attr title "packet drops: retry limit reached, count"
scalar World_Wlan.node[0].wlanNic[0].mac packetDropRetryLimitReached:sum(packetBytes) 0
attr interpolationmode none
attr source packetDropReasonIsRetryLimitReached(packetDropped)
attr title "packet drops: retry limit reached, sum(packetBytes)"
scalar World_Wlan.node[0].wlanNic[0].mac packetDropDuplicateDetected:count 0
attr interpolationmode none
attr source packetDropReasonIsDuplicateDetected(packetDropped)
attr title "packet drops: duplicate detected, count"
scalar World_Wlan.node[0].wlanNic[0].mac packetDropDuplicateDetected:sum(packetBytes) 0
attr interpolationmode none
attr source packetDropReasonIsDuplicateDetected(packetDropped)
attr title "packet drops: duplicate detected, sum(packetBytes)"
scalar World_Wlan.node[0].wlanNic[0].mac packetDropOther:count 0
attr interpolationmode none
attr source packetDropReasonIsOther(packetDropped)
attr title "packet drops: other, count"
scalar World_Wlan.node[0].wlanNic[0].mac packetDropOther:sum(packetBytes) 0
attr interpolationmode none
attr source packetDropReasonIsOther(packetDropped)
attr title "packet drops: other, sum(packetBytes)"
scalar World_Wlan.node[0].wlanNic[0].mac linkBroken:count 0
attr interpolationmode none
attr title "link breaks, count"
scalar World_Wlan.node[0].wlanNic[0].radio radioMode:count 51
attr interpolationmode sample-hold
attr source radioModeChanged
attr title "Radio mode, count"
scalar World_Wlan.node[0].wlanNic[0].radio receptionState:count 329
attr interpolationmode sample-hold
attr source receptionStateChanged
attr title "Radio reception state, count"
scalar World_Wlan.node[0].wlanNic[0].radio transmissionState:count 96
attr interpolationmode sample-hold
attr source transmissionStateChanged
attr title "Radio transmission state, count"
statistic World_Wlan.node[9].app[0] incidentAge:stats
field count 18
field mean 5.8470691381044
field stddev 2.0069285233602
field min 2.0119378978
field max 9.014924275954
field sum 105.24724448588
field sqrsum 683.85987076782
attr interpolationmode none
attr source incidentAge(packetReceived)
attr title "incidentAge, stats"
attr unit s
statistic World_Wlan.node[9].app[0] lastHopAge:stats
field count 18
field mean 0.0051205653698333
field stddev 0.002636158552272
field min 0.002618258305
field max 0.010517575682
field sum 0.092170176657
field sqrsum 0.00059010205723744
attr interpolationmode none
attr source lastHopAge(packetReceived)
attr title "lastHopAge, stats"
attr unit s
scalar World_Wlan.node[9].app[0] packetReceived:count 18
attr interpolationmode none
attr source packetReceived
attr title "packets received, count"
scalar World_Wlan.node[9].app[0] packetReceived:sum(packetBytes) 54000
attr interpolationmode none
attr source packetReceived
attr title "packets received, sum(packetBytes)"
scalar World_Wlan.node[9].app[0] packetSent:count 7
attr interpolationmode none
attr source packetSent
attr title "packets sent, count"
scalar World_Wlan.node[9].app[0] packetSent:sum(packetBytes) 21000
attr interpolationmode none
attr source packetSent
attr title "packets sent, sum(packetBytes)"
scalar World_Wlan.node[9].app[1] "packets sent" 0
scalar World_Wlan.node[9].app[1] "packets received" 0
scalar World_Wlan.node[9].app[1] packetReceived:count 0
attr interpolationmode none
attr source packetReceived
attr title "packets received, count"
scalar World_Wlan.node[9].app[1] packetReceived:sum(packetBytes) 0
attr interpolationmode none
attr source packetReceived
attr title "packets received, sum(packetBytes)"
statistic World_Wlan.node[9].app[1] rcvdPkLifetime:stats
field count 0
field mean -nan
field stddev -nan
field min -nan
field max -nan
field sum 0
field sqrsum 0
attr interpolationmode none
attr source dataAge(packetReceived)
attr title "received packet lifetime, stats"
attr unit s
scalar World_Wlan.node[9].app[1] packetSent:count 0
attr interpolationmode none
attr source packetSent
attr title "packets sent, count"
scalar World_Wlan.node[9].app[1] packetSent:sum(packetBytes) 0
attr interpolationmode none
attr source packetSent
attr title "packets sent, sum(packetBytes)"
scalar World_Wlan.node[9].udp packetReceived:count 18
attr interpolationmode none
attr source packetReceived
attr title "packets received, count"
scalar World_Wlan.node[9].udp packetReceived:sum(packetBytes) 54144
attr interpolationmode none
attr source packetReceived
attr title "packets received, sum(packetBytes)"
scalar World_Wlan.node[9].udp packetSent:count 7
attr interpolationmode none
attr source packetSent
attr title "packets sent, count"
scalar World_Wlan.node[9].udp packetSent:sum(packetBytes) 21056
attr interpolationmode none
attr source packetSent
attr title "packets sent, sum(packetBytes)"
scalar World_Wlan.node[9].udp passedUpPk:count 18
attr interpolationmode none
attr source packetSentToUpper
attr title "packets passed up, count"
scalar World_Wlan.node[9].udp droppedPkWrongPort:count 0
attr interpolationmode none
attr source packetDropReasonIsNoPortFound(packetDropped)
attr title "packets dropped (wrong port), count"
scalar World_Wlan.node[9].udp droppedPkBadChecksum:count 0
attr interpolationmode none
attr source packetDropReasonIsIncorrectlyReceived(packetDropped)
attr title "packets dropped (checksum error), count"
scalar World_Wlan.node[9].ipv4.ip packetDropAddressResolutionFailed:count 0
attr interpolationmode none
attr source packetDropReasonIsAddressResolutionFailed(packetDropped)
attr title "packet drop: address resolution failed, count"
scalar World_Wlan.node[9].ipv4.ip packetDropAddressResolutionFailed:sum(packetBytes) 0
attr interpolationmode none
attr source packetDropReasonIsAddressResolutionFailed(packetDropped)
attr title "packet drop: address resolution failed, sum(packetBytes)"
scalar World_Wlan.node[9].ipv4.ip packetDropHopLimitReached:count 0
attr interpolationmode none
attr source packetDropReasonIsHopLimitReached(packetDropped)
attr title "packet drop: hop limit reached, count"
scalar World_Wlan.node[9].ipv4.ip packetDropHopLimitReached:sum(packetBytes) 0
attr interpolationmode none
attr source packetDropReasonIsHopLimitReached(packetDropped)
attr title "packet drop: hop limit reached, sum(packetBytes)"
scalar World_Wlan.node[9].ipv4.ip packetDropForwardingDisabled:count 0
attr interpolationmode none
attr source packetDropReasonIsForwardingDisabled(packetDropped)
attr title "packet drop: forwarding disabled, count"
scalar World_Wlan.node[9].ipv4.ip packetDropForwardingDisabled:sum(packetBytes) 0
attr interpolationmode none
attr source packetDropReasonIsForwardingDisabled(packetDropped)
attr title "packet drop: forwarding disabled, sum(packetBytes)"
scalar World_Wlan.node[9].ipv4.ip packetDropNoInterfaceFound:count 0
attr interpolationmode none
attr source packetDropReasonIsNoInterfaceFound(packetDropped)
attr title "packet drop: no interface found, count"
scalar World_Wlan.node[9].ipv4.ip packetDropNoInterfaceFound:sum(packetBytes) 0
attr interpolationmode none
attr source packetDropReasonIsNoInterfaceFound(packetDropped)
attr title "packet drop: no interface found, sum(packetBytes)"
scalar World_Wlan.node[9].ipv4.ip packetDropNoRouteFound:count 0
attr interpolationmode none
attr source packetDropReasonIsNoRouteFound(packetDropped)
attr title "packet drop: no route found, count"
scalar World_Wlan.node[9].ipv4.ip packetDropNoRouteFound:sum(packetBytes) 0
attr interpolationmode none
attr source packetDropReasonIsNoRouteFound(packetDropped)
attr title "packet drop: no route found, sum(packetBytes)"
scalar World_Wlan.node[9].ipv4.ip packetDropUndefined:count 0
attr interpolationmode none
attr source packetDropReasonIsUndefined(packetDropped)
attr title "packet drop: undefined, count"
scalar World_Wlan.node[9].ipv4.ip packetDropUndefined:sum(packetBytes) 0
attr interpolationmode none
attr source packetDropReasonIsUndefined(packetDropped)
attr title "packet drop: undefined, sum(packetBytes)"
scalar World_Wlan.node[9].ipv4.arp arpResolutionFailed:count 0
attr title "ARP failed resolutions, count"
scalar World_Wlan.node[9].ipv4.arp arpResolutionCompleted:count 0
attr title "ARP completed resolutions, count"
scalar World_Wlan.node[9].ipv4.arp arpResolutionInitiated:count 0
attr title "ARP initiated resolutions, count"
scalar World_Wlan.node[9].ipv4.arp arpReplySent:count 0
attr source arpReplySent
attr title "ARP replies sent, count"
scalar World_Wlan.node[9].ipv4.arp arpReplySent:sum(packetBytes) 0
attr source arpReplySent
attr title "ARP replies sent, sum(packetBytes)"
scalar World_Wlan.node[9].ipv4.arp arpRequestSent:count 0
attr source arpRequestSent
attr title "ARP request sent, count"
scalar World_Wlan.node[9].ipv4.arp arpRequestSent:sum(packetBytes) 0
attr source arpRequestSent
attr title "ARP request sent, sum(packetBytes)"
scalar World_Wlan.node[9].wlanNic[0].mac.dcf.channelAccess.pendingQueue packetPopped:count 14
attr interpolationmode none
attr title "packet popped, count"
scalar World_Wlan.node[9].wlanNic[0].mac.dcf.channelAccess.pendingQueue packetPopped:sum(packetBytes) 21840
attr interpolationmode none
attr title "packet popped, sum(packetBytes)"
scalar World_Wlan.node[9].wlanNic[0].mac.dcf.channelAccess.pendingQueue queueLength:max 2
attr interpolationmode sample-hold
attr source "count(packetPushed) - count(packetPopped) - count(packetRemoved) - count(packetDropped)"
attr title "queue length, max"
scalar World_Wlan.node[9].wlanNic[0].mac.dcf.channelAccess.pendingQueue queueLength:timeavg 0.0013240684063411
attr interpolationmode sample-hold
attr source "count(packetPushed) - count(packetPopped) - count(packetRemoved) - count(packetDropped)"
attr title "queue length, timeavg"
scalar World_Wlan.node[9].wlanNic[0].mac.dcf.channelAccess.pendingQueue packetPushed:count 14
attr interpolationmode none
attr title "packet pushed, count"
scalar World_Wlan.node[9].wlanNic[0].mac.dcf.channelAccess.pendingQueue packetPushed:sum(packetBytes) 21840
attr interpolationmode none
attr title "packet pushed, sum(packetBytes)"
scalar World_Wlan.node[9].wlanNic[0].mac.dcf.channelAccess.pendingQueue packetDropQueueOverflow:count 0
attr interpolationmode none
attr source packetDropReasonIsQueueOverflow(packetDropped)
attr title "packet drops: queue overflow, count"
scalar World_Wlan.node[9].wlanNic[0].mac.dcf.channelAccess.pendingQueue packetDropQueueOverflow:sum(packetBytes) 0
attr interpolationmode none
attr source packetDropReasonIsQueueOverflow(packetDropped)
attr title "packet drops: queue overflow, sum(packetBytes)"
scalar World_Wlan.node[9].wlanNic[0].mac.dcf.channelAccess.pendingQueue packetRemoved:count 0
attr interpolationmode none
attr title "packets removed, count"
scalar World_Wlan.node[9].wlanNic[0].mac.dcf.channelAccess.pendingQueue packetRemoved:sum(packetBytes) 0
attr interpolationmode none
attr title "packets removed, sum(packetBytes)"
scalar World_Wlan.node[9].wlanNic[0].mac.dcf.channelAccess.inProgressFrames queueLength:max 2
attr interpolationmode sample-hold
attr source "count(packetEnqueued) - count(packetDequeued)"
attr title "queue length, max"
scalar World_Wlan.node[9].wlanNic[0].mac.dcf.channelAccess.inProgressFrames queueLength:timeavg 0.0037342674257882
attr interpolationmode sample-hold
attr source "count(packetEnqueued) - count(packetDequeued)"
attr title "queue length, timeavg"
scalar World_Wlan.node[9].wlanNic[0].mac.dcf.channelAccess.contention channelAccessGranted:count 21
attr title "channel access granted, count"
scalar World_Wlan.node[9].wlanNic[0].mac.dcf.channelAccess.contention stateChanged:count 422
attr interpolationmode none
attr title "contention state changed, count"
scalar World_Wlan.node[9].wlanNic[0].mac.dcf.channelAccess channelOwnershipChanged:count 42
attr interpolationmode sample-hold
attr title "channel ownership, count"
scalar World_Wlan.node[9].wlanNic[0].mac.dcf.originatorMacDataService packetAggregated:count 0
attr title "packets aggregated, count"
scalar World_Wlan.node[9].wlanNic[0].mac.dcf.originatorMacDataService packetFragmented:count 7
attr title "packets fragmented, count"
scalar World_Wlan.node[9].wlanNic[0].mac.dcf.recipientMacDataService packetDeaggregated:count 0
attr title "packets deaggregated, count"
scalar World_Wlan.node[9].wlanNic[0].mac.dcf.recipientMacDataService packetDefragmented:count 41
attr title "packets defragmented, count"
scalar World_Wlan.node[9].wlanNic[0].mac.dcf.recipientMacDataService packetDropDuplicateDetected:count 0
attr interpolationmode none
attr source packetDropReasonIsDuplicateDetected(packetDropped)
attr title "packet drops: duplicate detected, count"
scalar World_Wlan.node[9].wlanNic[0].mac.dcf.recipientMacDataService packetDropDuplicateDetected:sum(packetBytes) 0
attr interpolationmode none
attr source packetDropReasonIsDuplicateDetected(packetDropped)
attr title "packet drops: duplicate detected, sum(packetBytes)"
scalar World_Wlan.node[9].wlanNic[0].mac.dcf.recoveryProcedure retryLimitReached:count 0
attr title "retry limit reached, count"
scalar World_Wlan.node[9].wlanNic[0].mac.dcf frameSequenceFinished:count 21
attr title "finished frame sequences, count"
scalar World_Wlan.node[9].wlanNic[0].mac.dcf packetReceivedFromPeer:count 63
attr interpolationmode none
attr title "packets received, count"
scalar World_Wlan.node[9].wlanNic[0].mac.dcf packetReceivedFromPeer:sum(packetBytes) 64756
attr interpolationmode none
attr title "packets received, sum(packetBytes)"
scalar World_Wlan.node[9].wlanNic[0].mac.dcf packetReceivedFromPeerUnicast:count 0
attr interpolationmode none
attr source ieee80211Unicast(packetReceivedFromPeer)
attr title "packets received: unicast, count"
scalar World_Wlan.node[9].wlanNic[0].mac.dcf packetReceivedFromPeerUnicast:sum(packetBytes) 0
attr interpolationmode none
attr source ieee80211Unicast(packetReceivedFromPeer)
attr title "packets received: unicast, sum(packetBytes)"
scalar World_Wlan.node[9].wlanNic[0].mac.dcf packetReceivedFromPeerMulticast:count 63
attr interpolationmode none
attr source ieee80211Multicast(packetReceivedFromPeer)
attr title "packets received: multicast, count"
scalar World_Wlan.node[9].wlanNic[0].mac.dcf packetReceivedFromPeerMulticast:sum(packetBytes) 64756
attr interpolationmode none
attr source ieee80211Multicast(packetReceivedFromPeer)
attr title "packets received: multicast, sum(packetBytes)"
scalar World_Wlan.node[9].wlanNic[0].mac.dcf packetReceivedFromPeerBroadcast:count 0
attr interpolationmode none
attr source ieee80211Broadcast(packetReceivedFromPeer)
attr title "packets received: broadcast, count"
scalar World_Wlan.node[9].wlanNic[0].mac.dcf packetReceivedFromPeerBroadcast:sum(packetBytes) 0
attr interpolationmode none
attr source ieee80211Broadcast(packetReceivedFromPeer)
attr title "packets received: broadcast, sum(packetBytes)"
scalar World_Wlan.node[9].wlanNic[0].mac.dcf packetReceivedFromPeerWithRetry:count 0
attr interpolationmode none
attr source ieee80211Retry(packetReceivedFromPeer)
attr title "packets received: with retry, count"
scalar World_Wlan.node[9].wlanNic[0].mac.dcf packetReceivedFromPeerWithRetry:sum(packetBytes) 0
attr interpolationmode none
attr source ieee80211Retry(packetReceivedFromPeer)
attr title "packets received: with retry, sum(packetBytes)"
scalar World_Wlan.node[9].wlanNic[0].mac.dcf packetReceivedFromPeerWithoutRetry:count 63
attr interpolationmode none
attr source ieee80211NotRetry(packetReceivedFromPeer)
attr title "packets received: without retry, count"
scalar World_Wlan.node[9].wlanNic[0].mac.dcf packetReceivedFromPeerWithoutRetry:sum(packetBytes) 64756
attr interpolationmode none
attr source ieee80211NotRetry(packetReceivedFromPeer)
attr title "packets received: without retry, sum(packetBytes)"
scalar World_Wlan.node[9].wlanNic[0].mac.dcf packetSentToPeer:count 21
attr interpolationmode none
attr title "packets sent, count"
scalar World_Wlan.node[9].wlanNic[0].mac.dcf packetSentToPeer:sum(packetBytes) 22036
attr interpolationmode none
attr title "packets sent, sum(packetBytes)"
scalar World_Wlan.node[9].wlanNic[0].mac.dcf packetSentToPeerUnicast:count 0
attr interpolationmode none
attr source ieee80211Unicast(packetSentToPeer)
attr title "packets sent: unicast, count"
scalar World_Wlan.node[9].wlanNic[0].mac.dcf packetSentToPeerUnicast:sum(packetBytes) 0
attr interpolationmode none
attr source ieee80211Unicast(packetSentToPeer)
attr title "packets sent: unicast, sum(packetBytes)"
scalar World_Wlan.node[9].wlanNic[0].mac.dcf packetSentToPeerMulticast:count 21
attr interpolationmode none
attr source ieee80211Multicast(packetSentToPeer)
attr title "packets sent: multicast, count"
scalar World_Wlan.node[9].wlanNic[0].mac.dcf packetSentToPeerMulticast:sum(packetBytes) 22036
attr interpolationmode none
attr source ieee80211Multicast(packetSentToPeer)
attr title "packets sent: multicast, sum(packetBytes)"
scalar World_Wlan.node[9].wlanNic[0].mac.dcf packetSentToPeerBroadcast:count 0
attr interpolationmode none
attr source ieee80211Broadcast(packetSentToPeer)
attr title "packets sent: broadcast , count"
scalar World_Wlan.node[9].wlanNic[0].mac.dcf packetSentToPeerBroadcast:sum(packetBytes) 0
attr interpolationmode none
attr source ieee80211Broadcast(packetSentToPeer)
attr title "packets sent: broadcast , sum(packetBytes)"
scalar World_Wlan.node[9].wlanNic[0].mac.dcf packetSentToPeerWithRetry:count 0
attr interpolationmode none
attr source ieee80211Retry(packetSentToPeer)
attr title "packets sent: with retry, count"
scalar World_Wlan.node[9].wlanNic[0].mac.dcf packetSentToPeerWithRetry:sum(packetBytes) 0
attr interpolationmode none
attr source ieee80211Retry(packetSentToPeer)
attr title "packets sent: with retry, sum(packetBytes)"
scalar World_Wlan.node[9].wlanNic[0].mac.dcf packetSentToPeerWithoutRetry:count 21
attr interpolationmode none
attr source ieee80211NotRetry(packetSentToPeer)
attr title "packets sent: without retry, count"
scalar World_Wlan.node[9].wlanNic[0].mac.dcf packetSentToPeerWithoutRetry:sum(packetBytes) 22036
attr interpolationmode none
attr source ieee80211NotRetry(packetSentToPeer)
attr title "packets sent: without retry, sum(packetBytes)"
scalar World_Wlan.node[9].wlanNic[0].mac.dcf packetDrop:count 0
attr interpolationmode none
attr source packetDropped
attr title "packet drops, count"
scalar World_Wlan.node[9].wlanNic[0].mac.dcf packetDrop:sum(packetBytes) 0
attr interpolationmode none
attr source packetDropped
attr title "packet drops, sum(packetBytes)"
scalar World_Wlan.node[9].wlanNic[0].mac.dcf packetDropNotAddressedToUs:count 0
attr interpolationmode none
attr source packetDropReasonIsNotAddressedToUs(packetDropped)
attr title "packet drops: not addressed to us, count"
scalar World_Wlan.node[9].wlanNic[0].mac.dcf packetDropNotAddressedToUs:sum(packetBytes) 0
attr interpolationmode none
attr source packetDropReasonIsNotAddressedToUs(packetDropped)
attr title "packet drops: not addressed to us, sum(packetBytes)"
scalar World_Wlan.node[9].wlanNic[0].mac.dcf packetDropQueueOverflow:count 0
attr interpolationmode none
attr source packetDropReasonIsQueueOverflow(packetDropped)
attr title "packet drops: queue overflow, count"
scalar World_Wlan.node[9].wlanNic[0].mac.dcf packetDropQueueOverflow:sum(packetBytes) 0
attr interpolationmode none
attr source packetDropReasonIsQueueOverflow(packetDropped)
attr title "packet drops: queue overflow, sum(packetBytes)"
scalar World_Wlan.node[9].wlanNic[0].mac.dcf packetDropRetryLimitReached:count 0
attr interpolationmode none
attr source packetDropReasonIsRetryLimitReached(packetDropped)
attr title "packet drops: retry limit reached, count"
scalar World_Wlan.node[9].wlanNic[0].mac.dcf packetDropRetryLimitReached:sum(packetBytes) 0
attr interpolationmode none
attr source packetDropReasonIsRetryLimitReached(packetDropped)
attr title "packet drops: retry limit reached, sum(packetBytes)"
scalar World_Wlan.node[9].wlanNic[0].mac.dcf linkBroken:count 0
attr interpolationmode none
attr title "link breaks, count"
scalar World_Wlan.node[9].wlanNic[0].mac packetReceivedFromLower:count 63
attr interpolationmode none
attr title "packets received from lower layer, count"
scalar World_Wlan.node[9].wlanNic[0].mac packetReceivedFromLower:sum(packetBytes) 64756
attr interpolationmode none
attr title "packets received from lower layer, sum(packetBytes)"
scalar World_Wlan.node[9].wlanNic[0].mac packetSentToLower:count 21
attr interpolationmode none
attr title "packets sent to lower layer, count"
scalar World_Wlan.node[9].wlanNic[0].mac packetSentToLower:sum(packetBytes) 22036
attr interpolationmode none
attr title "packets sent to lower layer, sum(packetBytes)"
scalar World_Wlan.node[9].wlanNic[0].mac packetReceivedFromUpper:count 14
attr interpolationmode none
attr title "packets received from upper layer, count"
scalar World_Wlan.node[9].wlanNic[0].mac packetReceivedFromUpper:sum(packetBytes) 21448
attr interpolationmode none
attr title "packets received from upper layer, sum(packetBytes)"
scalar World_Wlan.node[9].wlanNic[0].mac packetSentToUpper:count 41
attr interpolationmode none
attr title "packets sent to upper layer, count"
scalar World_Wlan.node[9].wlanNic[0].mac packetSentToUpper:sum(packetBytes) 60484
attr interpolationmode none
attr title "packets sent to upper layer, sum(packetBytes)"
scalar World_Wlan.node[9].wlanNic[0].mac packetDrop:count 0
attr interpolationmode none
attr source packetDropped
attr title "packet drops, count"
scalar World_Wlan.node[9].wlanNic[0].mac packetDrop:sum(packetBytes) 0
attr interpolationmode none
attr source packetDropped
attr title "packet drops, sum(packetBytes)"
scalar World_Wlan.node[9].wlanNic[0].mac packetDropIncorrectlyReceived:count 0
attr interpolationmode none
attr source packetDropReasonIsIncorrectlyReceived(packetDropped)
attr title "packet drops: incorrectly received, count"
scalar World_Wlan.node[9].wlanNic[0].mac packetDropIncorrectlyReceived:sum(packetBytes) 0
attr interpolationmode none
attr source packetDropReasonIsIncorrectlyReceived(packetDropped)
attr title "packet drops: incorrectly received, sum(packetBytes)"
scalar World_Wlan.node[9].wlanNic[0].mac packetDropNotAddressedToUs:count 0
attr interpolationmode none
attr source packetDropReasonIsNotAddressedToUs(packetDropped)
attr title "packet drops: not addressed to us, count"
scalar World_Wlan.node[9].wlanNic[0].mac packetDropNotAddressedToUs:sum(packetBytes) 0
attr interpolationmode none
attr source packetDropReasonIsNotAddressedToUs(packetDropped)
attr title "packet drops: not addressed to us, sum(packetBytes)"
scalar World_Wlan.node[9].wlanNic[0].mac packetDropQueueOverflow:count 0
attr interpolationmode none
attr source packetDropReasonIsQueueOverflow(packetDropped)
attr title "packet drops: queue overflow, count"
scalar World_Wlan.node[9].wlanNic[0].mac packetDropQueueOverflow:sum(packetBytes) 0
attr interpolationmode none
attr source packetDropReasonIsQueueOverflow(packetDropped)
attr title "packet drops: queue overflow, sum(packetBytes)"
scalar World_Wlan.node[9].wlanNic[0].mac packetDropRetryLimitReached:count 0
attr interpolationmode none
attr source packetDropReasonIsRetryLimitReached(packetDropped)
attr title "packet drops: retry limit reached, count"
scalar World_Wlan.node[9].wlanNic[0].mac packetDropRetryLimitReached:sum(packetBytes) 0
attr interpolationmode none
attr source packetDropReasonIsRetryLimitReached(packetDropped)
attr title "packet drops: retry limit reached, sum(packetBytes)"
scalar World_Wlan.node[9].wlanNic[0].mac packetDropDuplicateDetected:count 0
attr interpolationmode none
attr source packetDropReasonIsDuplicateDetected(packetDropped)
attr title "packet drops: duplicate detected, count"
scalar World_Wlan.node[9].wlanNic[0].mac packetDropDuplicateDetected:sum(packetBytes) 0
attr interpolationmode none
attr source packetDropReasonIsDuplicateDetected(packetDropped)
attr title "packet drops: duplicate detected, sum(packetBytes)"
scalar World_Wlan.node[9].wlanNic[0].mac packetDropOther:count 0
attr interpolationmode none
attr source packetDropReasonIsOther(packetDropped)
attr title "packet drops: other, count"
scalar World_Wlan.node[9].wlanNic[0].mac packetDropOther:sum(packetBytes) 0
attr interpolationmode none
attr source packetDropReasonIsOther(packetDropped)
attr title "packet drops: other, sum(packetBytes)"
scalar World_Wlan.node[9].wlanNic[0].mac linkBroken:count 0
attr interpolationmode none
attr title "link breaks, count"
scalar World_Wlan.node[9].wlanNic[0].radio radioMode:count 45
attr interpolationmode sample-hold
attr source radioModeChanged
attr title "Radio mode, count"
scalar World_Wlan.node[9].wlanNic[0].radio receptionState:count 174
attr interpolationmode sample-hold
attr source receptionStateChanged
attr title "Radio reception state, count"
scalar World_Wlan.node[9].wlanNic[0].radio transmissionState:count 84
attr interpolationmode sample-hold
attr source transmissionStateChanged
attr title "Radio transmission state, count"
statistic World_Wlan.node[10].app[0] incidentAge:stats
field count 11
field mean 5.9248022376098
field stddev 1.9727055488963
field min 3.013875943216
field max 9.016484009682
field sum 65.172824613708
field sqrsum 425.05176892911
attr interpolationmode none
attr source incidentAge(packetReceived)
attr title "incidentAge, stats"
attr unit s
statistic World_Wlan.node[10].app[0] lastHopAge:stats
field count 11
field mean 0.0028924958589091
field stddev 0.00074574607344621
field min 0.001818042224
field max 0.003916161748
field sum 0.031817454448
field sqrsum 9.7593227292473e-05
attr interpolationmode none
attr source lastHopAge(packetReceived)
attr title "lastHopAge, stats"
attr unit s
scalar World_Wlan.node[10].app[0] packetReceived:count 11
attr interpolationmode none
attr source packetReceived
attr title "packets received, count"
scalar World_Wlan.node[10].app[0] packetReceived:sum(packetBytes) 33000
attr interpolationmode none
attr source packetReceived
attr title "packets received, sum(packetBytes)"
scalar World_Wlan.node[10].app[0] packetSent:count 6
attr interpolationmode none
attr source packetSent
attr title "packets sent, count"
scalar World_Wlan.node[10].app[0] packetSent:sum(packetBytes) 18000
attr interpolationmode none
attr source packetSent
attr title "packets sent, sum(packetBytes)"
scalar World_Wlan.node[10].app[1] "packets sent" 0
scalar World_Wlan.node[10].app[1] "packets received" 0
scalar World_Wlan.node[10].app[1] packetReceived:count 0
attr interpolationmode none
attr source packetReceived
attr title "packets received, count"
scalar World_Wlan.node[10].app[1] packetReceived:sum(packetBytes) 0
attr interpolationmode none
attr source packetReceived
attr title "packets received, sum(packetBytes)"
statistic World_Wlan.node[10].app[1] rcvdPkLifetime:stats
field count 0
field mean -nan
field stddev -nan
field min -nan
field max -nan
field sum 0
field sqrsum 0
attr interpolationmode none
attr source dataAge(packetReceived)
attr title "received packet lifetime, stats"
attr unit s
scalar World_Wlan.node[10].app[1] packetSent:count 0
attr interpolationmode none
attr source packetSent
attr title "packets sent, count"
scalar World_Wlan.node[10].app[1] packetSent:sum(packetBytes) 0
attr interpolationmode none
attr source packetSent
attr title "packets sent, sum(packetBytes)"
[...]
attr interpolationmode none
attr title "packet pushed, sum(packetBytes)"
scalar World_Wlan.station[1].wlan[0].mac.dcf.channelAccess.pendingQueue packetDropQueueOverflow:count 0
attr interpolationmode none
attr source packetDropReasonIsQueueOverflow(packetDropped)
attr title "packet drops: queue overflow, count"
scalar World_Wlan.station[1].wlan[0].mac.dcf.channelAccess.pendingQueue packetDropQueueOverflow:sum(packetBytes) 0
attr interpolationmode none
attr source packetDropReasonIsQueueOverflow(packetDropped)
attr title "packet drops: queue overflow, sum(packetBytes)"
scalar World_Wlan.station[1].wlan[0].mac.dcf.channelAccess.pendingQueue packetRemoved:count 0
attr interpolationmode none
attr title "packets removed, count"
scalar World_Wlan.station[1].wlan[0].mac.dcf.channelAccess.pendingQueue packetRemoved:sum(packetBytes) 0
attr interpolationmode none
attr title "packets removed, sum(packetBytes)"
scalar World_Wlan.station[1].wlan[0].mac.dcf.channelAccess.inProgressFrames queueLength:max -nan
attr interpolationmode sample-hold
attr source "count(packetEnqueued) - count(packetDequeued)"
attr title "queue length, max"
scalar World_Wlan.station[1].wlan[0].mac.dcf.channelAccess.inProgressFrames queueLength:timeavg -nan
attr interpolationmode sample-hold
attr source "count(packetEnqueued) - count(packetDequeued)"
attr title "queue length, timeavg"
scalar World_Wlan.station[1].wlan[0].mac.dcf.channelAccess.contention channelAccessGranted:count 0
attr title "channel access granted, count"
scalar World_Wlan.station[1].wlan[0].mac.dcf.channelAccess.contention stateChanged:count 592
attr interpolationmode none
attr title "contention state changed, count"
scalar World_Wlan.station[1].wlan[0].mac.dcf.channelAccess channelOwnershipChanged:count 0
attr interpolationmode sample-hold
attr title "channel ownership, count"
scalar World_Wlan.station[1].wlan[0].mac.dcf.originatorMacDataService packetAggregated:count 0
attr title "packets aggregated, count"
scalar World_Wlan.station[1].wlan[0].mac.dcf.originatorMacDataService packetFragmented:count 0
attr title "packets fragmented, count"
scalar World_Wlan.station[1].wlan[0].mac.dcf.recipientMacDataService packetDeaggregated:count 0
attr title "packets deaggregated, count"
scalar World_Wlan.station[1].wlan[0].mac.dcf.recipientMacDataService packetDefragmented:count 89
attr title "packets defragmented, count"
scalar World_Wlan.station[1].wlan[0].mac.dcf.recipientMacDataService packetDropDuplicateDetected:count 0
attr interpolationmode none
attr source packetDropReasonIsDuplicateDetected(packetDropped)
attr title "packet drops: duplicate detected, count"
scalar World_Wlan.station[1].wlan[0].mac.dcf.recipientMacDataService packetDropDuplicateDetected:sum(packetBytes) 0
attr interpolationmode none
attr source packetDropReasonIsDuplicateDetected(packetDropped)
attr title "packet drops: duplicate detected, sum(packetBytes)"
scalar World_Wlan.station[1].wlan[0].mac.dcf.recoveryProcedure retryLimitReached:count 0
attr title "retry limit reached, count"
scalar World_Wlan.station[1].wlan[0].mac.dcf frameSequenceFinished:count 0
attr title "finished frame sequences, count"
scalar World_Wlan.station[1].wlan[0].mac.dcf packetReceivedFromPeer:count 162
attr interpolationmode none
attr title "packets received, count"
scalar World_Wlan.station[1].wlan[0].mac.dcf packetReceivedFromPeer:sum(packetBytes) 160292
attr interpolationmode none
attr title "packets received, sum(packetBytes)"
scalar World_Wlan.station[1].wlan[0].mac.dcf packetReceivedFromPeerUnicast:count 0
attr interpolationmode none
attr source ieee80211Unicast(packetReceivedFromPeer)
attr title "packets received: unicast, count"
scalar World_Wlan.station[1].wlan[0].mac.dcf packetReceivedFromPeerUnicast:sum(packetBytes) 0
attr interpolationmode none
attr source ieee80211Unicast(packetReceivedFromPeer)
attr title "packets received: unicast, sum(packetBytes)"
scalar World_Wlan.station[1].wlan[0].mac.dcf packetReceivedFromPeerMulticast:count 162
attr interpolationmode none
attr source ieee80211Multicast(packetReceivedFromPeer)
attr title "packets received: multicast, count"
scalar World_Wlan.station[1].wlan[0].mac.dcf packetReceivedFromPeerMulticast:sum(packetBytes) 160292
attr interpolationmode none
attr source ieee80211Multicast(packetReceivedFromPeer)
attr title "packets received: multicast, sum(packetBytes)"
scalar World_Wlan.station[1].wlan[0].mac.dcf packetReceivedFromPeerBroadcast:count 0
attr interpolationmode none
attr source ieee80211Broadcast(packetReceivedFromPeer)
attr title "packets received: broadcast, count"
scalar World_Wlan.station[1].wlan[0].mac.dcf packetReceivedFromPeerBroadcast:sum(packetBytes) 0
attr interpolationmode none
attr source ieee80211Broadcast(packetReceivedFromPeer)
attr title "packets received: broadcast, sum(packetBytes)"
scalar World_Wlan.station[1].wlan[0].mac.dcf packetReceivedFromPeerWithRetry:count 0
attr interpolationmode none
attr source ieee80211Retry(packetReceivedFromPeer)
attr title "packets received: with retry, count"
scalar World_Wlan.station[1].wlan[0].mac.dcf packetReceivedFromPeerWithRetry:sum(packetBytes) 0
attr interpolationmode none
attr source ieee80211Retry(packetReceivedFromPeer)
attr title "packets received: with retry, sum(packetBytes)"
scalar World_Wlan.station[1].wlan[0].mac.dcf packetReceivedFromPeerWithoutRetry:count 162
attr interpolationmode none
attr source ieee80211NotRetry(packetReceivedFromPeer)
attr title "packets received: without retry, count"
scalar World_Wlan.station[1].wlan[0].mac.dcf packetReceivedFromPeerWithoutRetry:sum(packetBytes) 160292
attr interpolationmode none
attr source ieee80211NotRetry(packetReceivedFromPeer)
attr title "packets received: without retry, sum(packetBytes)"
scalar World_Wlan.station[1].wlan[0].mac.dcf packetSentToPeer:count 0
attr interpolationmode none
attr title "packets sent, count"
scalar World_Wlan.station[1].wlan[0].mac.dcf packetSentToPeer:sum(packetBytes) 0
attr interpolationmode none
attr title "packets sent, sum(packetBytes)"
scalar World_Wlan.station[1].wlan[0].mac.dcf packetSentToPeerUnicast:count 0
attr interpolationmode none
attr source ieee80211Unicast(packetSentToPeer)
attr title "packets sent: unicast, count"
scalar World_Wlan.station[1].wlan[0].mac.dcf packetSentToPeerUnicast:sum(packetBytes) 0
attr interpolationmode none
attr source ieee80211Unicast(packetSentToPeer)
attr title "packets sent: unicast, sum(packetBytes)"
scalar World_Wlan.station[1].wlan[0].mac.dcf packetSentToPeerMulticast:count 0
attr interpolationmode none
attr source ieee80211Multicast(packetSentToPeer)
attr title "packets sent: multicast, count"
scalar World_Wlan.station[1].wlan[0].mac.dcf packetSentToPeerMulticast:sum(packetBytes) 0
attr interpolationmode none
attr source ieee80211Multicast(packetSentToPeer)
attr title "packets sent: multicast, sum(packetBytes)"
scalar World_Wlan.station[1].wlan[0].mac.dcf packetSentToPeerBroadcast:count 0
attr interpolationmode none
attr source ieee80211Broadcast(packetSentToPeer)
attr title "packets sent: broadcast , count"
scalar World_Wlan.station[1].wlan[0].mac.dcf packetSentToPeerBroadcast:sum(packetBytes) 0
attr interpolationmode none
attr source ieee80211Broadcast(packetSentToPeer)
attr title "packets sent: broadcast , sum(packetBytes)"
scalar World_Wlan.station[1].wlan[0].mac.dcf packetSentToPeerWithRetry:count 0
attr interpolationmode none
attr source ieee80211Retry(packetSentToPeer)
attr title "packets sent: with retry, count"
scalar World_Wlan.station[1].wlan[0].mac.dcf packetSentToPeerWithRetry:sum(packetBytes) 0
attr interpolationmode none
attr source ieee80211Retry(packetSentToPeer)
attr title "packets sent: with retry, sum(packetBytes)"
scalar World_Wlan.station[1].wlan[0].mac.dcf packetSentToPeerWithoutRetry:count 0
attr interpolationmode none
attr source ieee80211NotRetry(packetSentToPeer)
attr title "packets sent: without retry, count"
scalar World_Wlan.station[1].wlan[0].mac.dcf packetSentToPeerWithoutRetry:sum(packetBytes) 0
attr interpolationmode none
attr source ieee80211NotRetry(packetSentToPeer)
attr title "packets sent: without retry, sum(packetBytes)"
scalar World_Wlan.station[1].wlan[0].mac.dcf packetDrop:count 0
attr interpolationmode none
attr source packetDropped
attr title "packet drops, count"
scalar World_Wlan.station[1].wlan[0].mac.dcf packetDrop:sum(packetBytes) 0
attr interpolationmode none
attr source packetDropped
attr title "packet drops, sum(packetBytes)"
scalar World_Wlan.station[1].wlan[0].mac.dcf packetDropNotAddressedToUs:count 0
attr interpolationmode none
attr source packetDropReasonIsNotAddressedToUs(packetDropped)
attr title "packet drops: not addressed to us, count"
scalar World_Wlan.station[1].wlan[0].mac.dcf packetDropNotAddressedToUs:sum(packetBytes) 0
attr interpolationmode none
attr source packetDropReasonIsNotAddressedToUs(packetDropped)
attr title "packet drops: not addressed to us, sum(packetBytes)"
scalar World_Wlan.station[1].wlan[0].mac.dcf packetDropQueueOverflow:count 0
attr interpolationmode none
attr source packetDropReasonIsQueueOverflow(packetDropped)
attr title "packet drops: queue overflow, count"
scalar World_Wlan.station[1].wlan[0].mac.dcf packetDropQueueOverflow:sum(packetBytes) 0
attr interpolationmode none
attr source packetDropReasonIsQueueOverflow(packetDropped)
attr title "packet drops: queue overflow, sum(packetBytes)"
scalar World_Wlan.station[1].wlan[0].mac.dcf packetDropRetryLimitReached:count 0
attr interpolationmode none
attr source packetDropReasonIsRetryLimitReached(packetDropped)
attr title "packet drops: retry limit reached, count"
scalar World_Wlan.station[1].wlan[0].mac.dcf packetDropRetryLimitReached:sum(packetBytes) 0
attr interpolationmode none
attr source packetDropReasonIsRetryLimitReached(packetDropped)
attr title "packet drops: retry limit reached, sum(packetBytes)"
scalar World_Wlan.station[1].wlan[0].mac.dcf linkBroken:count 0
attr interpolationmode none
attr title "link breaks, count"
scalar World_Wlan.station[1].wlan[0].mac packetReceivedFromLower:count 183
attr interpolationmode none
attr title "packets received from lower layer, count"
scalar World_Wlan.station[1].wlan[0].mac packetReceivedFromLower:sum(packetBytes) 182168
attr interpolationmode none
attr title "packets received from lower layer, sum(packetBytes)"
scalar World_Wlan.station[1].wlan[0].mac packetSentToLower:count 0
attr interpolationmode none
attr title "packets sent to lower layer, count"
scalar World_Wlan.station[1].wlan[0].mac packetSentToLower:sum(packetBytes) 0
attr interpolationmode none
attr title "packets sent to lower layer, sum(packetBytes)"
scalar World_Wlan.station[1].wlan[0].mac packetReceivedFromUpper:count 0
attr interpolationmode none
attr title "packets received from upper layer, count"
scalar World_Wlan.station[1].wlan[0].mac packetReceivedFromUpper:sum(packetBytes) 0
attr interpolationmode none
attr title "packets received from upper layer, sum(packetBytes)"
scalar World_Wlan.station[1].wlan[0].mac packetSentToUpper:count 89
attr interpolationmode none
attr title "packets sent to upper layer, count"
scalar World_Wlan.station[1].wlan[0].mac packetSentToUpper:sum(packetBytes) 118500
attr interpolationmode none
attr title "packets sent to upper layer, sum(packetBytes)"
scalar World_Wlan.station[1].wlan[0].mac packetDrop:count 21
attr interpolationmode none
attr source packetDropped
attr title "packet drops, count"
scalar World_Wlan.station[1].wlan[0].mac packetDrop:sum(packetBytes) 21876
attr interpolationmode none
attr source packetDropped
attr title "packet drops, sum(packetBytes)"
scalar World_Wlan.station[1].wlan[0].mac packetDropIncorrectlyReceived:count 21
attr interpolationmode none
attr source packetDropReasonIsIncorrectlyReceived(packetDropped)
attr title "packet drops: incorrectly received, count"
scalar World_Wlan.station[1].wlan[0].mac packetDropIncorrectlyReceived:sum(packetBytes) 21876
attr interpolationmode none
attr source packetDropReasonIsIncorrectlyReceived(packetDropped)
attr title "packet drops: incorrectly received, sum(packetBytes)"
scalar World_Wlan.station[1].wlan[0].mac packetDropNotAddressedToUs:count 0
attr interpolationmode none
attr source packetDropReasonIsNotAddressedToUs(packetDropped)
attr title "packet drops: not addressed to us, count"
scalar World_Wlan.station[1].wlan[0].mac packetDropNotAddressedToUs:sum(packetBytes) 0
attr interpolationmode none
attr source packetDropReasonIsNotAddressedToUs(packetDropped)
attr title "packet drops: not addressed to us, sum(packetBytes)"
scalar World_Wlan.station[1].wlan[0].mac packetDropQueueOverflow:count 0
attr interpolationmode none
attr source packetDropReasonIsQueueOverflow(packetDropped)
attr title "packet drops: queue overflow, count"
scalar World_Wlan.station[1].wlan[0].mac packetDropQueueOverflow:sum(packetBytes) 0
attr interpolationmode none
attr source packetDropReasonIsQueueOverflow(packetDropped)
attr title "packet drops: queue overflow, sum(packetBytes)"
scalar World_Wlan.station[1].wlan[0].mac packetDropRetryLimitReached:count 0
attr interpolationmode none
attr source packetDropReasonIsRetryLimitReached(packetDropped)
attr title "packet drops: retry limit reached, count"
scalar World_Wlan.station[1].wlan[0].mac packetDropRetryLimitReached:sum(packetBytes) 0
attr interpolationmode none
attr source packetDropReasonIsRetryLimitReached(packetDropped)
attr title "packet drops: retry limit reached, sum(packetBytes)"
scalar World_Wlan.station[1].wlan[0].mac packetDropDuplicateDetected:count 0
attr interpolationmode none
attr source packetDropReasonIsDuplicateDetected(packetDropped)
attr title "packet drops: duplicate detected, count"
scalar World_Wlan.station[1].wlan[0].mac packetDropDuplicateDetected:sum(packetBytes) 0
attr interpolationmode none
attr source packetDropReasonIsDuplicateDetected(packetDropped)
attr title "packet drops: duplicate detected, sum(packetBytes)"
scalar World_Wlan.station[1].wlan[0].mac packetDropOther:count 0
attr interpolationmode none
attr source packetDropReasonIsOther(packetDropped)
attr title "packet drops: other, count"
scalar World_Wlan.station[1].wlan[0].mac packetDropOther:sum(packetBytes) 0
attr interpolationmode none
attr source packetDropReasonIsOther(packetDropped)
attr title "packet drops: other, sum(packetBytes)"
scalar World_Wlan.station[1].wlan[0].mac linkBroken:count 0
attr interpolationmode none
attr title "link breaks, count"
scalar World_Wlan.station[1].wlan[0].radio radioMode:count 3
attr interpolationmode sample-hold
attr source radioModeChanged
attr title "Radio mode, count"
scalar World_Wlan.station[1].wlan[0].radio receptionState:count 400
attr interpolationmode sample-hold
attr source receptionStateChanged
attr title "Radio reception state, count"
scalar World_Wlan.station[1].wlan[0].radio transmissionState:count 0
attr interpolationmode sample-hold
attr source transmissionStateChanged
attr title "Radio transmission state, count"
scalar World_Wlan.station[1].ipv4.ip packetDropAddressResolutionFailed:count 0
attr interpolationmode none
attr source packetDropReasonIsAddressResolutionFailed(packetDropped)
attr title "packet drop: address resolution failed, count"
scalar World_Wlan.station[1].ipv4.ip packetDropAddressResolutionFailed:sum(packetBytes) 0
attr interpolationmode none
attr source packetDropReasonIsAddressResolutionFailed(packetDropped)
attr title "packet drop: address resolution failed, sum(packetBytes)"
scalar World_Wlan.station[1].ipv4.ip packetDropHopLimitReached:count 0
attr interpolationmode none
attr source packetDropReasonIsHopLimitReached(packetDropped)
attr title "packet drop: hop limit reached, count"
scalar World_Wlan.station[1].ipv4.ip packetDropHopLimitReached:sum(packetBytes) 0
attr interpolationmode none
attr source packetDropReasonIsHopLimitReached(packetDropped)
attr title "packet drop: hop limit reached, sum(packetBytes)"
scalar World_Wlan.station[1].ipv4.ip packetDropForwardingDisabled:count 0
attr interpolationmode none
attr source packetDropReasonIsForwardingDisabled(packetDropped)
attr title "packet drop: forwarding disabled, count"
scalar World_Wlan.station[1].ipv4.ip packetDropForwardingDisabled:sum(packetBytes) 0
attr interpolationmode none
attr source packetDropReasonIsForwardingDisabled(packetDropped)
attr title "packet drop: forwarding disabled, sum(packetBytes)"
scalar World_Wlan.station[1].ipv4.ip packetDropNoInterfaceFound:count 0
attr interpolationmode none
attr source packetDropReasonIsNoInterfaceFound(packetDropped)
attr title "packet drop: no interface found, count"
scalar World_Wlan.station[1].ipv4.ip packetDropNoInterfaceFound:sum(packetBytes) 0
attr interpolationmode none
attr source packetDropReasonIsNoInterfaceFound(packetDropped)
attr title "packet drop: no interface found, sum(packetBytes)"
scalar World_Wlan.station[1].ipv4.ip packetDropNoRouteFound:count 0
attr interpolationmode none
attr source packetDropReasonIsNoRouteFound(packetDropped)
attr title "packet drop: no route found, count"
scalar World_Wlan.station[1].ipv4.ip packetDropNoRouteFound:sum(packetBytes) 0
attr interpolationmode none
attr source packetDropReasonIsNoRouteFound(packetDropped)
attr title "packet drop: no route found, sum(packetBytes)"
scalar World_Wlan.station[1].ipv4.ip packetDropUndefined:count 0
attr interpolationmode none
attr source packetDropReasonIsUndefined(packetDropped)
attr title "packet drop: undefined, count"
scalar World_Wlan.station[1].ipv4.ip packetDropUndefined:sum(packetBytes) 0
attr interpolationmode none
attr source packetDropReasonIsUndefined(packetDropped)
attr title "packet drop: undefined, sum(packetBytes)"
scalar World_Wlan.station[1].ipv4.arp arpResolutionFailed:count 0
attr title "ARP failed resolutions, count"
scalar World_Wlan.station[1].ipv4.arp arpResolutionCompleted:count 0
attr title "ARP completed resolutions, count"
scalar World_Wlan.station[1].ipv4.arp arpResolutionInitiated:count 0
attr title "ARP initiated resolutions, count"
scalar World_Wlan.station[1].ipv4.arp arpReplySent:count 0
attr source arpReplySent
attr title "ARP replies sent, count"
scalar World_Wlan.station[1].ipv4.arp arpReplySent:sum(packetBytes) 0
attr source arpReplySent
attr title "ARP replies sent, sum(packetBytes)"
scalar World_Wlan.station[1].ipv4.arp arpRequestSent:count 0
attr source arpRequestSent
attr title "ARP request sent, count"
scalar World_Wlan.station[1].ipv4.arp arpRequestSent:sum(packetBytes) 0
attr source arpRequestSent
attr title "ARP request sent, sum(packetBytes)"
scalar World_Wlan.station[1].udp packetReceived:count 0
attr interpolationmode none
attr source packetReceived
attr title "packets received, count"
scalar World_Wlan.station[1].udp packetReceived:sum(packetBytes) 0
attr interpolationmode none
attr source packetReceived
attr title "packets received, sum(packetBytes)"
scalar World_Wlan.station[1].udp packetSent:count 0
attr interpolationmode none
attr source packetSent
attr title "packets sent, count"
scalar World_Wlan.station[1].udp packetSent:sum(packetBytes) 0
attr interpolationmode none
attr source packetSent
attr title "packets sent, sum(packetBytes)"
scalar World_Wlan.station[1].udp passedUpPk:count 0
attr interpolationmode none
attr source packetSentToUpper
attr title "packets passed up, count"
scalar World_Wlan.station[1].udp droppedPkWrongPort:count 0
attr interpolationmode none
attr source packetDropReasonIsNoPortFound(packetDropped)
attr title "packets dropped (wrong port), count"
scalar World_Wlan.station[1].udp droppedPkBadChecksum:count 0
attr interpolationmode none
attr source packetDropReasonIsIncorrectlyReceived(packetDropped)
attr title "packets dropped (checksum error), count"
scalar World_Wlan.station[1].app[0] packetReceived:count 0
attr interpolationmode none
attr source packetReceived
attr title "packets received, count"
scalar World_Wlan.station[1].app[0] packetReceived:sum(packetBytes) 0
attr interpolationmode none
attr source packetReceived
attr title "packets received, sum(packetBytes)"

