version 2
run mf_D2D_1to2_Vadere_00-0-20191217-10:07:37-7
attr configname mf_D2D_1to2_Vadere_00
attr datetime 20191217-10:07:37
attr experiment mf_D2D_1to2_Vadere_00
attr inifile omnetpp.ini
attr iterationvars $F=1
attr iterationvarsf F=1-
attr measurement $F=1
attr network rover.simulations.networks.LTE_d2d_Vadere
attr processid 7
attr repetition 0
attr replication #0
attr resultdir results
attr runnumber 0
attr seedset 0
itervar F 1
param *.manager.updateInterval 0.4s
param *.manager.host "\"vadere\""
param *.manager.port 9998
param *.manager.moduleType "\"pedestrian=rover.nodes.MobileUe\""
param *.manager.moduleName "\"pedestrian=ueD2D\""
param *.manager.moduleDisplayString "\"pedestrian='i=veins/node/pedestrian;is=vs'\""
param *.manager.margin 0
param *.manager.vadereCachePath "\"vadere-cache/veins-test\""
param *.manager.visualizer "\"visualization\""
param *.manager.vadereScenarioPath "\"vadere/scenarios/mf_klein_initial_peds.scenario\""
param *.physicalEnvironment.config "xmldoc(\"mf_klein_initial_peds_env.xml\")"
param *.physicalEnvironment.spaceMinX -100m
param *.physicalEnvironment.spaceMinY -100m
param *.physicalEnvironment.spaceMinZ -100m
param *.physicalEnvironment.spaceMaxX 600m
param *.physicalEnvironment.spaceMaxY 600m
param *.physicalEnvironment.spaceMaxZ 600m
param *.ueD2D[*].numApps 1
param *.ueD2D[0..4].app[*].typename "\"AlertSender\""
param *.ueD2D[0..4].app[*].localPort 3088+ancestorIndex(0)
param *.ueD2D[0..4].app[*].startTime uniform(0s,0.02s)
param *.ueD2D[0..4].app[*].stopTime 20s
param *.ueD2D[0..4].app[*].destAddress "\"224.0.0.10\""
param *.ueD2D[0..4].app[*].destPort 1000
param *.ueD2D[4..].app[*].typename "\"AlertReceiver\""
param *.ueD2D[4..].app[*].localPort 1000
param *.eNB*.nicType "\"LteNicEnbD2D\""
param *.ueD2D*[*].nicType "\"LteNicUeD2D\""
param **.amcMode "\"D2D\""
param *.ueD2D[*].configurator.mcastGroups "\"224.0.0.10\""
param **.usePreconfiguredTxParams true
param **.d2dCqi 7
param **.routingRecorder.enabled true
param **.mobility.constraintAreaMinZ 0m
param **.mobility.constraintAreaMaxZ 0m
param **.numRbDl 50
param **.numRbUl 50
param **.numBands 50
param *.eNB.mobility.initFromDisplayString false
param *.eNB.mobility.initialX 20m
param *.eNB.mobility.initialY 20m
param *.numUeCell 0
param *.numUeD2D 0
param *.foo 1
param *.ue*[*].macCellId 1
param *.ue*[*].masterId 1

scalar LTE_d2d_Vadere.ueD2D[9].app[0] alertRcvdMsg:sum 2914
attr source alertRcvdMsg
attr title "Alert Messages Received, sum"
attr unit s
scalar LTE_d2d_Vadere.ueD2D[9].app[0] alertDelay:mean 0.01400377487989
attr source alertDelay
attr title "Alert Message Delay, mean"
attr unit s
scalar LTE_d2d_Vadere.eNB.lteNic.channelModel rcvdSinr:mean 29.013179010348
attr source rcvdSinr
attr title "SINR measured at packet reception, mean"
attr unit dB

